/*---------------------------------------------------------------------------*\
| =========                 |                                                 |
| \\      /  F ield         | OpenFOAM: The Open Source CFD Toolbox           |
|  \\    /   O peration     | Version:  2412                                  |
|   \\  /    A nd           | Website:  www.openfoam.com                      |
|    \\/     M anipulation  |                                                 |
\*---------------------------------------------------------------------------*/
Build  : _2c4871ff-20250317 OPENFOAM=2412 version=2412
Arch   : "LSB;label=32;scalar=64"
Exec   : chtMultiRegionFoam -case /home/isaac_paten/Documents/openFOAM_projects/testing_solve2eqclosure_package/two_squares/openfoam_case/
Date   : Sep 10 2025
Time   : 09:40:09
Host   : IMFT-AUTO134
PID    : 389050
I/O    : uncollated
Case   : /home/isaac_paten/Documents/openFOAM_projects/testing_solve2eqclosure_package/two_squares/openfoam_case
nProcs : 1
trapFpe: Floating point exception trapping enabled (FOAM_SIGFPE).
fileModificationChecking : Monitoring run-time modified files using timeStampMaster (fileModificationSkew 5, maxFileModificationPolls 20)
allowSystemOperations : Allowing user-supplied system call operations

// * * * * * * * * * * * * * * * * * * * * * * * * * * * * * * * * * * * * * //
Create time

Create solid mesh for region particle_1 for time = 0

Create solid mesh for region particle_2 for time = 0

*** Reading solid mesh thermophysical properties for region particle_1

    Adding to thermos

Selecting thermodynamics package 
{
    type            heSolidThermo;
    mixture         pureMixture;
    transport       constIso;
    thermo          hConst;
    equationOfState rhoConst;
    specie          specie;
    energy          sensibleEnthalpy;
}

    Adding to radiations

Radiation model not active: radiationProperties not found
Selecting radiationModel none
    Adding fvOptions

Creating finite volume options from "constant/fvOptions"

Selecting finite volume options type scalarSemiImplicitSource
    Source: energySource
    - selecting all cells
    - selected 16000 cell(s) with volume 1.6e-17
*** Reading solid mesh thermophysical properties for region particle_2

    Adding to thermos

Selecting thermodynamics package 
{
    type            heSolidThermo;
    mixture         pureMixture;
    transport       constIso;
    thermo          hConst;
    equationOfState rhoConst;
    specie          specie;
    energy          sensibleEnthalpy;
}

    Adding to radiations

Radiation model not active: radiationProperties not found
Selecting radiationModel none
    Adding fvOptions

Creating finite volume options from "constant/fvOptions"

Selecting finite volume options type scalarSemiImplicitSource
    Source: energySource
    - selecting all cells
    - selected 4000 cell(s) with volume 4e-18
Region: particle_1 Diffusion Number mean: 0.004 max: 0.016
Region: particle_2 Diffusion Number mean: 0.004 max: 0.016
surfaceFieldValue particle_1_surfaceIntegral_elec:
    operation     = areaIntegrate


surfaceFieldValue particle_2_surfaceIntegral_elec:
    operation     = areaIntegrate


deltaT = 0.001
Region: particle_1 Diffusion Number mean: 0.004 max: 0.016
Region: particle_2 Diffusion Number mean: 0.004 max: 0.016
deltaT = 0.0011999976
Time = 0.0012


Solving for solid region particle_1
DICPCG:  Solving for h, Initial residual = 0.9999605165, Final residual = 3.180117135e-09, No Iterations 2
Min/max T:99986.80794 100000.0109

Solving for solid region particle_2
DICPCG:  Solving for h, Initial residual = 0.99990593, Final residual = 2.812605456e-09, No Iterations 2
Min/max T:99986.81571 100000.0187
ExecutionTime = 0.04 s  ClockTime = 0 s

volFieldValue particle_1_volumeIntegral write:
    volIntegrate(particle_1) of T = 1.6e-12

surfaceFieldValue particle_1_surfaceIntegral_elec write:
    total faces   = 1400
    total area    = 1.4e-11

    areaIntegrate(particle_1_to_Elec) of T = 1.399816945e-06

volFieldValue particle_2_volumeIntegral write:
    volIntegrate(particle_2) of T = 4e-13

surfaceFieldValue particle_2_surfaceIntegral_elec write:
    total faces   = 600
    total area    = 6e-12

    areaIntegrate(particle_2_to_Elec) of T = 5.999215873e-07

Region: particle_1 Diffusion Number mean: 0.0047999904 max: 0.0191999616
Region: particle_2 Diffusion Number mean: 0.0047999904 max: 0.0191999616
deltaT = 0.001440000576
Time = 0.00264


Solving for solid region particle_1
DICPCG:  Solving for h, Initial residual = 0.3735840828, Final residual = 2.429276943e-09, No Iterations 2
Min/max T:99986.52561 100000.0239

Solving for solid region particle_2
DICPCG:  Solving for h, Initial residual = 0.3734930156, Final residual = 2.148743222e-09, No Iterations 2
Min/max T:99986.54271 100000.041
ExecutionTime = 0.04 s  ClockTime = 0 s

volFieldValue particle_1_volumeIntegral write:
    volIntegrate(particle_1) of T = 1.6e-12

surfaceFieldValue particle_1_surfaceIntegral_elec write:
    areaIntegrate(particle_1_to_Elec) of T = 1.399814941e-06

volFieldValue particle_2_volumeIntegral write:
    volIntegrate(particle_2) of T = 4e-13

surfaceFieldValue particle_2_surfaceIntegral_elec write:
    areaIntegrate(particle_2_to_Elec) of T = 5.999207761e-07

Region: particle_1 Diffusion Number mean: 0.005760002304 max: 0.02304000922
Region: particle_2 Diffusion Number mean: 0.005760002304 max: 0.02304000922
deltaT = 0.00172800318
Time = 0.004368


Solving for solid region particle_1
DICPCG:  Solving for h, Initial residual = 0.2447343419, Final residual = 3.245103888e-09, No Iterations 2
Min/max T:99986.18921 100000.0396

Solving for solid region particle_2
DICPCG:  Solving for h, Initial residual = 0.2446211205, Final residual = 2.87058235e-09, No Iterations 2
Min/max T:99986.2175 100000.0679
ExecutionTime = 0.04 s  ClockTime = 0 s

volFieldValue particle_1_volumeIntegral write:
    volIntegrate(particle_1) of T = 1.6e-12

surfaceFieldValue particle_1_surfaceIntegral_elec write:
    areaIntegrate(particle_1_to_Elec) of T = 1.399812553e-06

volFieldValue particle_2_volumeIntegral write:
    volIntegrate(particle_2) of T = 4e-13

surfaceFieldValue particle_2_surfaceIntegral_elec write:
    areaIntegrate(particle_2_to_Elec) of T = 5.999198099e-07

Region: particle_1 Diffusion Number mean: 0.006912012718 max: 0.02764805087
Region: particle_2 Diffusion Number mean: 0.006912012718 max: 0.02764805087
deltaT = 0.002073610982
Time = 0.00644161


Solving for solid region particle_1
DICPCG:  Solving for h, Initial residual = 0.1895811887, Final residual = 5.109374465e-09, No Iterations 2
Min/max T:99985.78891 100000.0584

Solving for solid region particle_2
DICPCG:  Solving for h, Initial residual = 0.189443716, Final residual = 4.520070325e-09, No Iterations 2
Min/max T:99985.83063 100000.1001
ExecutionTime = 0.05 s  ClockTime = 0 s

volFieldValue particle_1_volumeIntegral write:
    volIntegrate(particle_1) of T = 1.6e-12

surfaceFieldValue particle_1_surfaceIntegral_elec write:
    areaIntegrate(particle_1_to_Elec) of T = 1.399809712e-06

volFieldValue particle_2_volumeIntegral write:
    volIntegrate(particle_2) of T = 4.000000001e-13

surfaceFieldValue particle_2_surfaceIntegral_elec write:
    areaIntegrate(particle_2_to_Elec) of T = 5.99918661e-07

Region: particle_1 Diffusion Number mean: 0.008294443928 max: 0.03317777571
Region: particle_2 Diffusion Number mean: 0.008294443928 max: 0.03317777571
deltaT = 0.002488317699
Time = 0.00892993


Solving for solid region particle_1
DICPCG:  Solving for h, Initial residual = 0.159171927, Final residual = 8.685119436e-09, No Iterations 2
Min/max T:99985.31334 100000.0812

Solving for solid region particle_2
DICPCG:  Solving for h, Initial residual = 0.1590067095, Final residual = 7.684000754e-09, No Iterations 2
Min/max T:99985.37118 100000.1388
ExecutionTime = 0.05 s  ClockTime = 0 s

volFieldValue particle_1_volumeIntegral write:
    volIntegrate(particle_1) of T = 1.6e-12

surfaceFieldValue particle_1_surfaceIntegral_elec write:
    areaIntegrate(particle_1_to_Elec) of T = 1.399806336e-06

volFieldValue particle_2_volumeIntegral write:
    volIntegrate(particle_2) of T = 4.000000001e-13

surfaceFieldValue particle_2_surfaceIntegral_elec write:
    areaIntegrate(particle_2_to_Elec) of T = 5.999172972e-07

Region: particle_1 Diffusion Number mean: 0.009953270794 max: 0.03981308318
Region: particle_2 Diffusion Number mean: 0.009953270794 max: 0.03981308318
deltaT = 0.002985966378
Time = 0.0119159


Solving for solid region particle_1
DICPCG:  Solving for h, Initial residual = 0.1400047804, Final residual = 4.052343765e-12, No Iterations 3
Min/max T:99984.74939 100000.1094

Solving for solid region particle_2
DICPCG:  Solving for h, Initial residual = 0.1398070496, Final residual = 3.36332011e-12, No Iterations 3
Min/max T:99984.82658 100000.1852
ExecutionTime = 0.06 s  ClockTime = 0 s

volFieldValue particle_1_volumeIntegral write:
    volIntegrate(particle_1) of T = 1.6e-12

surfaceFieldValue particle_1_surfaceIntegral_elec write:
    areaIntegrate(particle_1_to_Elec) of T = 1.399802333e-06

volFieldValue particle_2_volumeIntegral write:
    volIntegrate(particle_2) of T = 4.000000002e-13

surfaceFieldValue particle_2_surfaceIntegral_elec write:
    areaIntegrate(particle_2_to_Elec) of T = 5.999156812e-07

Region: particle_1 Diffusion Number mean: 0.01194386551 max: 0.04777546204
Region: particle_2 Diffusion Number mean: 0.01194386551 max: 0.04777546204
deltaT = 0.003583181053
Time = 0.0154991


Solving for solid region particle_1
DICPCG:  Solving for h, Initial residual = 0.1268491739, Final residual = 1.045331929e-11, No Iterations 3
Min/max T:99984.08209 100000.1459

Solving for solid region particle_2
DICPCG:  Solving for h, Initial residual = 0.1266121896, Final residual = 8.672405501e-12, No Iterations 3
Min/max T:99984.18249 100000.241
ExecutionTime = 0.06 s  ClockTime = 0 s

volFieldValue particle_1_volumeIntegral write:
    volIntegrate(particle_1) of T = 1.599999999e-12

surfaceFieldValue particle_1_surfaceIntegral_elec write:
    areaIntegrate(particle_1_to_Elec) of T = 1.399797596e-06

volFieldValue particle_2_volumeIntegral write:
    volIntegrate(particle_2) of T = 4.000000004e-13

surfaceFieldValue particle_2_surfaceIntegral_elec write:
    areaIntegrate(particle_2_to_Elec) of T = 5.999137712e-07

Region: particle_1 Diffusion Number mean: 0.01433272421 max: 0.05733089685
Region: particle_2 Diffusion Number mean: 0.01433272421 max: 0.05733089685
deltaT = 0.004299817263
Time = 0.0197989


Solving for solid region particle_1
DICPCG:  Solving for h, Initial residual = 0.1173572926, Final residual = 2.726894586e-11, No Iterations 3
Min/max T:99983.29448 100000.1896

Solving for solid region particle_2
DICPCG:  Solving for h, Initial residual = 0.1169595955, Final residual = 2.262798192e-11, No Iterations 3
Min/max T:99983.42273 100000.3078
ExecutionTime = 0.06 s  ClockTime = 0 s

volFieldValue particle_1_volumeIntegral write:
    volIntegrate(particle_1) of T = 1.599999999e-12

surfaceFieldValue particle_1_surfaceIntegral_elec write:
    areaIntegrate(particle_1_to_Elec) of T = 1.399792005e-06

volFieldValue particle_2_volumeIntegral write:
    volIntegrate(particle_2) of T = 4.000000006e-13

surfaceFieldValue particle_2_surfaceIntegral_elec write:
    areaIntegrate(particle_2_to_Elec) of T = 5.999115195e-07

Region: particle_1 Diffusion Number mean: 0.01719926905 max: 0.06879707622
Region: particle_2 Diffusion Number mean: 0.01719926905 max: 0.06879707622
deltaT = 0.005159714152
Time = 0.0249586


Solving for solid region particle_1
DICPCG:  Solving for h, Initial residual = 0.1101202345, Final residual = 7.139947313e-11, No Iterations 3
Min/max T:99982.36758 100000.242

Solving for solid region particle_2
DICPCG:  Solving for h, Initial residual = 0.1095345852, Final residual = 5.926765308e-11, No Iterations 3
Min/max T:99982.52925 100000.388
ExecutionTime = 0.06 s  ClockTime = 0 s

volFieldValue particle_1_volumeIntegral write:
    volIntegrate(particle_1) of T = 1.599999999e-12

surfaceFieldValue particle_1_surfaceIntegral_elec write:
    areaIntegrate(particle_1_to_Elec) of T = 1.399785425e-06

volFieldValue particle_2_volumeIntegral write:
    volIntegrate(particle_2) of T = 4.000000009e-13

surfaceFieldValue particle_2_surfaceIntegral_elec write:
    areaIntegrate(particle_2_to_Elec) of T = 5.999088736e-07

Region: particle_1 Diffusion Number mean: 0.02063885661 max: 0.08255542643
Region: particle_2 Diffusion Number mean: 0.02063885661 max: 0.08255542643
deltaT = 0.00619156113
Time = 0.0311502


Solving for solid region particle_1
DICPCG:  Solving for h, Initial residual = 0.1043716825, Final residual = 1.86832162e-10, No Iterations 3
Min/max T:99981.28039 100000.3048

Solving for solid region particle_2
DICPCG:  Solving for h, Initial residual = 0.1036564324, Final residual = 1.54885652e-10, No Iterations 3
Min/max T:99981.48218 100000.4843
ExecutionTime = 0.06 s  ClockTime = 0 s

volFieldValue particle_1_volumeIntegral write:
    volIntegrate(particle_1) of T = 1.599999998e-12

surfaceFieldValue particle_1_surfaceIntegral_elec write:
    areaIntegrate(particle_1_to_Elec) of T = 1.399777706e-06

volFieldValue particle_2_volumeIntegral write:
    volIntegrate(particle_2) of T = 4.000000013e-13

surfaceFieldValue particle_2_surfaceIntegral_elec write:
    areaIntegrate(particle_2_to_Elec) of T = 5.999057753e-07

Region: particle_1 Diffusion Number mean: 0.02476624452 max: 0.09906497809
Region: particle_2 Diffusion Number mean: 0.02476624452 max: 0.09906497809
deltaT = 0.007429919367
Time = 0.0385801


Solving for solid region particle_1
DICPCG:  Solving for h, Initial residual = 0.1011670229, Final residual = 4.857548305e-10, No Iterations 3
Min/max T:99980.00999 100000.3799

Solving for solid region particle_2
DICPCG:  Solving for h, Initial residual = 0.09881531543, Final residual = 4.024957993e-10, No Iterations 3
Min/max T:99980.2599 100000.5998
ExecutionTime = 0.06 s  ClockTime = 0 s

volFieldValue particle_1_volumeIntegral write:
    volIntegrate(particle_1) of T = 1.599999997e-12

surfaceFieldValue particle_1_surfaceIntegral_elec write:
    areaIntegrate(particle_1_to_Elec) of T = 1.399768685e-06

volFieldValue particle_2_volumeIntegral write:
    volIntegrate(particle_2) of T = 4.000000019e-13

surfaceFieldValue particle_2_surfaceIntegral_elec write:
    areaIntegrate(particle_2_to_Elec) of T = 5.999021621e-07

Region: particle_1 Diffusion Number mean: 0.02971967747 max: 0.1188787099
Region: particle_2 Diffusion Number mean: 0.02971967747 max: 0.1188787099
deltaT = 0.008915704473
Time = 0.0474958


Solving for solid region particle_1
DICPCG:  Solving for h, Initial residual = 0.09902161749, Final residual = 1.250345924e-09, No Iterations 3
Min/max T:99978.53181 100000.4699

Solving for solid region particle_2
DICPCG:  Solving for h, Initial residual = 0.09463621304, Final residual = 1.036225252e-09, No Iterations 3
Min/max T:99978.83948 100000.7384
ExecutionTime = 0.08 s  ClockTime = 0 s

volFieldValue particle_1_volumeIntegral write:
    volIntegrate(particle_1) of T = 1.599999996e-12

surfaceFieldValue particle_1_surfaceIntegral_elec write:
    areaIntegrate(particle_1_to_Elec) of T = 1.399758187e-06

volFieldValue particle_2_volumeIntegral write:
    volIntegrate(particle_2) of T = 4.000000028e-13

surfaceFieldValue particle_2_surfaceIntegral_elec write:
    areaIntegrate(particle_2_to_Elec) of T = 5.998979678e-07

Region: particle_1 Diffusion Number mean: 0.03566281789 max: 0.1426512716
Region: particle_2 Diffusion Number mean: 0.03566281789 max: 0.1426512716
deltaT = 0.01069894078
Time = 0.0581947


Solving for solid region particle_1
DICPCG:  Solving for h, Initial residual = 0.09743624746, Final residual = 3.178749994e-09, No Iterations 3
Min/max T:99976.81992 100000.5775

Solving for solid region particle_2
DICPCG:  Solving for h, Initial residual = 0.09095011359, Final residual = 2.629582411e-09, No Iterations 3
Min/max T:99977.19688 100000.9047
ExecutionTime = 0.08 s  ClockTime = 0 s

volFieldValue particle_1_volumeIntegral write:
    volIntegrate(particle_1) of T = 1.599999994e-12

surfaceFieldValue particle_1_surfaceIntegral_elec write:
    areaIntegrate(particle_1_to_Elec) of T = 1.399746027e-06

volFieldValue particle_2_volumeIntegral write:
    volIntegrate(particle_2) of T = 4.000000039e-13

surfaceFieldValue particle_2_surfaceIntegral_elec write:
    areaIntegrate(particle_2_to_Elec) of T = 5.998931233e-07

Region: particle_1 Diffusion Number mean: 0.04279576311 max: 0.1711830525
Region: particle_2 Diffusion Number mean: 0.04279576311 max: 0.1711830525
deltaT = 0.01283900374
Time = 0.0710337


Solving for solid region particle_1
DICPCG:  Solving for h, Initial residual = 0.09628476653, Final residual = 7.970601336e-09, No Iterations 3
Min/max T:99974.84748 100000.7063

Solving for solid region particle_2
DICPCG:  Solving for h, Initial residual = 0.08900416913, Final residual = 6.557161413e-09, No Iterations 3
Min/max T:99975.30762 100001.1043
ExecutionTime = 0.08 s  ClockTime = 0 s

volFieldValue particle_1_volumeIntegral write:
    volIntegrate(particle_1) of T = 1.599999992e-12

surfaceFieldValue particle_1_surfaceIntegral_elec write:
    areaIntegrate(particle_1_to_Elec) of T = 1.399732011e-06

volFieldValue particle_2_volumeIntegral write:
    volIntegrate(particle_2) of T = 4.000000054e-13

surfaceFieldValue particle_2_surfaceIntegral_elec write:
    areaIntegrate(particle_2_to_Elec) of T = 5.998875589e-07

Region: particle_1 Diffusion Number mean: 0.05135601497 max: 0.2054240599
Region: particle_2 Diffusion Number mean: 0.05135601497 max: 0.2054240599
deltaT = 0.01540640874
Time = 0.0864401


Solving for solid region particle_1
DICPCG:  Solving for h, Initial residual = 0.09502867323, Final residual = 1.006046911e-10, No Iterations 4
Min/max T:99972.58747 100000.8602

Solving for solid region particle_2
DICPCG:  Solving for h, Initial residual = 0.08819977804, Final residual = 8.07147124e-11, No Iterations 4
Min/max T:99973.1474 100001.3438
ExecutionTime = 0.09 s  ClockTime = 0 s

volFieldValue particle_1_volumeIntegral write:
    volIntegrate(particle_1) of T = 1.599999989e-12

surfaceFieldValue particle_1_surfaceIntegral_elec write:
    areaIntegrate(particle_1_to_Elec) of T = 1.399715946e-06

volFieldValue particle_2_volumeIntegral write:
    volIntegrate(particle_2) of T = 4.000000073e-13

surfaceFieldValue particle_2_surfaceIntegral_elec write:
    areaIntegrate(particle_2_to_Elec) of T = 5.998812063e-07

Region: particle_1 Diffusion Number mean: 0.06162563497 max: 0.2465025399
Region: particle_2 Diffusion Number mean: 0.06162563497 max: 0.2465025399
deltaT = 0.01848826041
Time = 0.104928


Solving for solid region particle_1
DICPCG:  Solving for h, Initial residual = 0.09359251634, Final residual = 3.258222563e-10, No Iterations 4
Min/max T:99970.01279 100001.0442

Solving for solid region particle_2
DICPCG:  Solving for h, Initial residual = 0.08755832978, Final residual = 2.621634786e-10, No Iterations 4
Min/max T:99970.69248 100001.6313
ExecutionTime = 0.09 s  ClockTime = 0 s

volFieldValue particle_1_volumeIntegral write:
    volIntegrate(particle_1) of T = 1.599999985e-12

surfaceFieldValue particle_1_surfaceIntegral_elec write:
    areaIntegrate(particle_1_to_Elec) of T = 1.399697634e-06

volFieldValue particle_2_volumeIntegral write:
    volIntegrate(particle_2) of T = 4.000000098e-13

surfaceFieldValue particle_2_surfaceIntegral_elec write:
    areaIntegrate(particle_2_to_Elec) of T = 5.998739994e-07

Region: particle_1 Diffusion Number mean: 0.07395304165 max: 0.2958121666
Region: particle_2 Diffusion Number mean: 0.07395304165 max: 0.2958121666
deltaT = 0.0221859125
Time = 0.127114


Solving for solid region particle_1
DICPCG:  Solving for h, Initial residual = 0.09166774841, Final residual = 1.012813552e-09, No Iterations 4
Min/max T:99967.09715 100001.264

Solving for solid region particle_2
DICPCG:  Solving for h, Initial residual = 0.08699100477, Final residual = 8.207027404e-10, No Iterations 4
Min/max T:99967.92056 100001.9762
ExecutionTime = 0.1 s  ClockTime = 0 s

volFieldValue particle_1_volumeIntegral write:
    volIntegrate(particle_1) of T = 1.59999998e-12

surfaceFieldValue particle_1_surfaceIntegral_elec write:
    areaIntegrate(particle_1_to_Elec) of T = 1.399676883e-06

volFieldValue particle_2_volumeIntegral write:
    volIntegrate(particle_2) of T = 4.000000129e-13

surfaceFieldValue particle_2_surfaceIntegral_elec write:
    areaIntegrate(particle_2_to_Elec) of T = 5.998658771e-07

Region: particle_1 Diffusion Number mean: 0.08874364999 max: 0.3549745999
Region: particle_2 Diffusion Number mean: 0.08874364999 max: 0.3549745999
deltaT = 0.02662486821
Time = 0.153739


Solving for solid region particle_1
DICPCG:  Solving for h, Initial residual = 0.08975100278, Final residual = 3.027867281e-09, No Iterations 4
Min/max T:99963.81486 100001.5265

Solving for solid region particle_2
DICPCG:  Solving for h, Initial residual = 0.08636522891, Final residual = 2.470925942e-09, No Iterations 4
Min/max T:99964.81073 100002.3901
ExecutionTime = 0.1 s  ClockTime = 0 s

volFieldValue particle_1_volumeIntegral write:
    volIntegrate(particle_1) of T = 1.599999973e-12

surfaceFieldValue particle_1_surfaceIntegral_elec write:
    areaIntegrate(particle_1_to_Elec) of T = 1.399653504e-06

volFieldValue particle_2_volumeIntegral write:
    volIntegrate(particle_2) of T = 4.000000168e-13

surfaceFieldValue particle_2_surfaceIntegral_elec write:
    areaIntegrate(particle_2_to_Elec) of T = 5.998567837e-07

Region: particle_1 Diffusion Number mean: 0.1064994729 max: 0.4259978914
Region: particle_2 Diffusion Number mean: 0.1064994729 max: 0.4259978914
deltaT = 0.03194984186
Time = 0.185689


Solving for solid region particle_1
DICPCG:  Solving for h, Initial residual = 0.08777260071, Final residual = 8.689410579e-09, No Iterations 4
Min/max T:99960.14145 100001.8396

Solving for solid region particle_2
DICPCG:  Solving for h, Initial residual = 0.08540336354, Final residual = 7.142182501e-09, No Iterations 4
Min/max T:99961.34429 100002.8868
ExecutionTime = 0.1 s  ClockTime = 0 s

volFieldValue particle_1_volumeIntegral write:
    volIntegrate(particle_1) of T = 1.599999963e-12

surfaceFieldValue particle_1_surfaceIntegral_elec write:
    areaIntegrate(particle_1_to_Elec) of T = 1.399627312e-06

volFieldValue particle_2_volumeIntegral write:
    volIntegrate(particle_2) of T = 4.000000215e-13

surfaceFieldValue particle_2_surfaceIntegral_elec write:
    areaIntegrate(particle_2_to_Elec) of T = 5.998466711e-07

Region: particle_1 Diffusion Number mean: 0.1277993674 max: 0.5111974697
Region: particle_2 Diffusion Number mean: 0.1277993674 max: 0.5111974697
deltaT = 0.03833735821
Time = 0.224026


Solving for solid region particle_1
DICPCG:  Solving for h, Initial residual = 0.08604394626, Final residual = 5.081773866e-10, No Iterations 5
Min/max T:99956.05308 100002.213

Solving for solid region particle_2
DICPCG:  Solving for h, Initial residual = 0.08373705822, Final residual = 4.115134474e-10, No Iterations 5
Min/max T:99957.50425 100003.4828
ExecutionTime = 0.11 s  ClockTime = 0 s

volFieldValue particle_1_volumeIntegral write:
    volIntegrate(particle_1) of T = 1.599999951e-12

surfaceFieldValue particle_1_surfaceIntegral_elec write:
    areaIntegrate(particle_1_to_Elec) of T = 1.399598127e-06

volFieldValue particle_2_volumeIntegral write:
    volIntegrate(particle_2) of T = 4.000000273e-13

surfaceFieldValue particle_2_surfaceIntegral_elec write:
    areaIntegrate(particle_2_to_Elec) of T = 5.998354975e-07

Region: particle_1 Diffusion Number mean: 0.1533494328 max: 0.6133977313
Region: particle_2 Diffusion Number mean: 0.1533494328 max: 0.6133977313
deltaT = 0.04599953341
Time = 0.270026


Solving for solid region particle_1
DICPCG:  Solving for h, Initial residual = 0.08549362642, Final residual = 1.740345993e-09, No Iterations 5
Min/max T:99951.52593 100002.6749

Solving for solid region particle_2
DICPCG:  Solving for h, Initial residual = 0.08152961734, Final residual = 1.399784967e-09, No Iterations 5
Min/max T:99953.27507 100004.1979
ExecutionTime = 0.11 s  ClockTime = 0 s

volFieldValue particle_1_volumeIntegral write:
    volIntegrate(particle_1) of T = 1.599999935e-12

surfaceFieldValue particle_1_surfaceIntegral_elec write:
    areaIntegrate(particle_1_to_Elec) of T = 1.399565762e-06

volFieldValue particle_2_volumeIntegral write:
    volIntegrate(particle_2) of T = 4.000000342e-13

surfaceFieldValue particle_2_surfaceIntegral_elec write:
    areaIntegrate(particle_2_to_Elec) of T = 5.998232268e-07

Region: particle_1 Diffusion Number mean: 0.1839981337 max: 0.7359925346
Region: particle_2 Diffusion Number mean: 0.1839981337 max: 0.7359925346
deltaT = 0.05520452573
Time = 0.32523


Solving for solid region particle_1
DICPCG:  Solving for h, Initial residual = 0.08486269161, Final residual = 5.671220409e-09, No Iterations 5
Min/max T:99946.5344 100003.2356

Solving for solid region particle_2
DICPCG:  Solving for h, Initial residual = 0.07898807534, Final residual = 4.504160627e-09, No Iterations 5
Min/max T:99948.64114 100005.0561
ExecutionTime = 0.11 s  ClockTime = 0 s

volFieldValue particle_1_volumeIntegral write:
    volIntegrate(particle_1) of T = 1.599999913e-12

surfaceFieldValue particle_1_surfaceIntegral_elec write:
    areaIntegrate(particle_1_to_Elec) of T = 1.399530019e-06

volFieldValue particle_2_volumeIntegral write:
    volIntegrate(particle_2) of T = 4.000000422e-13

surfaceFieldValue particle_2_surfaceIntegral_elec write:
    areaIntegrate(particle_2_to_Elec) of T = 5.99809825e-07

Region: particle_1 Diffusion Number mean: 0.2208181029 max: 0.8832724116
Region: particle_2 Diffusion Number mean: 0.2208181029 max: 0.8832724116
deltaT = 0.06624909408
Time = 0.39148


Solving for solid region particle_1
DICPCG:  Solving for h, Initial residual = 0.08413415525, Final residual = 7.980273793e-10, No Iterations 6
Min/max T:99941.05273 100003.907

Solving for solid region particle_2
DICPCG:  Solving for h, Initial residual = 0.07644852085, Final residual = 6.386162845e-10, No Iterations 6
Min/max T:99943.58862 100006.0857
ExecutionTime = 0.11 s  ClockTime = 0 s

volFieldValue particle_1_volumeIntegral write:
    volIntegrate(particle_1) of T = 1.599999884e-12

surfaceFieldValue particle_1_surfaceIntegral_elec write:
    areaIntegrate(particle_1_to_Elec) of T = 1.39949069e-06

volFieldValue particle_2_volumeIntegral write:
    volIntegrate(particle_2) of T = 4.000000515e-13

surfaceFieldValue particle_2_surfaceIntegral_elec write:
    areaIntegrate(particle_2_to_Elec) of T = 5.99795265e-07

Region: particle_1 Diffusion Number mean: 0.2649963763 max: 1.059985505
Region: particle_2 Diffusion Number mean: 0.2649963763 max: 1.059985505
deltaT = 0.07949363618
Time = 0.470973


Solving for solid region particle_1
DICPCG:  Solving for h, Initial residual = 0.08318982926, Final residual = 2.898825707e-09, No Iterations 6
Min/max T:99935.05408 100004.7096

Solving for solid region particle_2
DICPCG:  Solving for h, Initial residual = 0.07442865737, Final residual = 2.328969826e-09, No Iterations 6
Min/max T:99938.1049 100007.3206
ExecutionTime = 0.13 s  ClockTime = 0 s

volFieldValue particle_1_volumeIntegral write:
    volIntegrate(particle_1) of T = 1.599999847e-12

surfaceFieldValue particle_1_surfaceIntegral_elec write:
    areaIntegrate(particle_1_to_Elec) of T = 1.399447557e-06

volFieldValue particle_2_volumeIntegral write:
    volIntegrate(particle_2) of T = 4.000000619e-13

surfaceFieldValue particle_2_surfaceIntegral_elec write:
    areaIntegrate(particle_2_to_Elec) of T = 5.997795258e-07

Region: particle_1 Diffusion Number mean: 0.3179745447 max: 1.271898179
Region: particle_2 Diffusion Number mean: 0.3179745447 max: 1.271898179
deltaT = 0.09537716387
Time = 0.56635


Solving for solid region particle_1
DICPCG:  Solving for h, Initial residual = 0.08209982426, Final residual = 9.797338358e-09, No Iterations 6
Min/max T:99928.50983 100005.6669

Solving for solid region particle_2
DICPCG:  Solving for h, Initial residual = 0.0728807209, Final residual = 7.923689909e-09, No Iterations 6
Min/max T:99932.17847 100008.8003
ExecutionTime = 0.13 s  ClockTime = 0 s

volFieldValue particle_1_volumeIntegral write:
    volIntegrate(particle_1) of T = 1.599999796e-12

surfaceFieldValue particle_1_surfaceIntegral_elec write:
    areaIntegrate(particle_1_to_Elec) of T = 1.399400383e-06

volFieldValue particle_2_volumeIntegral write:
    volIntegrate(particle_2) of T = 4.000000733e-13

surfaceFieldValue particle_2_surfaceIntegral_elec write:
    areaIntegrate(particle_2_to_Elec) of T = 5.997625924e-07

Region: particle_1 Diffusion Number mean: 0.3815086555 max: 1.526034622
Region: particle_2 Diffusion Number mean: 0.3815086555 max: 1.526034622
deltaT = 0.1144197646
Time = 0.68077


Solving for solid region particle_1
DICPCG:  Solving for h, Initial residual = 0.08081919995, Final residual = 2.706407919e-09, No Iterations 7
Min/max T:99921.39019 100006.8065

Solving for solid region particle_2
DICPCG:  Solving for h, Initial residual = 0.07112576183, Final residual = 2.160203718e-09, No Iterations 7
Min/max T:99925.8 100010.5706
ExecutionTime = 0.14 s  ClockTime = 0 s

volFieldValue particle_1_volumeIntegral write:
    volIntegrate(particle_1) of T = 1.599999729e-12

surfaceFieldValue particle_1_surfaceIntegral_elec write:
    areaIntegrate(particle_1_to_Elec) of T = 1.399348916e-06

volFieldValue particle_2_volumeIntegral write:
    volIntegrate(particle_2) of T = 4.000000851e-13

surfaceFieldValue particle_2_surfaceIntegral_elec write:
    areaIntegrate(particle_2_to_Elec) of T = 5.997444589e-07

Region: particle_1 Diffusion Number mean: 0.4576790583 max: 1.830716233
Region: particle_2 Diffusion Number mean: 0.4576790583 max: 1.830716233
deltaT = 0.1372721969
Time = 0.818042


Solving for solid region particle_1
DICPCG:  Solving for h, Initial residual = 0.07985845275, Final residual = 9.621706302e-09, No Iterations 7
Min/max T:99913.66318 100008.1598

Solving for solid region particle_2
DICPCG:  Solving for h, Initial residual = 0.06909144543, Final residual = 7.57005063e-09, No Iterations 7
Min/max T:99918.9622 100012.6823
ExecutionTime = 0.14 s  ClockTime = 0 s

volFieldValue particle_1_volumeIntegral write:
    volIntegrate(particle_1) of T = 1.599999639e-12

surfaceFieldValue particle_1_surfaceIntegral_elec write:
    areaIntegrate(particle_1_to_Elec) of T = 1.399292883e-06

volFieldValue particle_2_volumeIntegral write:
    volIntegrate(particle_2) of T = 4.000000963e-13

surfaceFieldValue particle_2_surfaceIntegral_elec write:
    areaIntegrate(particle_2_to_Elec) of T = 5.997251286e-07

Region: particle_1 Diffusion Number mean: 0.5490887876 max: 2.19635515
Region: particle_2 Diffusion Number mean: 0.5490887876 max: 2.19635515
deltaT = 0.1647493447
Time = 0.982792


Solving for solid region particle_1
DICPCG:  Solving for h, Initial residual = 0.07854065903, Final residual = 4.030383198e-09, No Iterations 8
Min/max T:99905.29407 100009.7626

Solving for solid region particle_2
DICPCG:  Solving for h, Initial residual = 0.0668793965, Final residual = 3.050660345e-09, No Iterations 8
Min/max T:99911.66029 100015.1892
ExecutionTime = 0.15 s  ClockTime = 0 s

volFieldValue particle_1_volumeIntegral write:
    volIntegrate(particle_1) of T = 1.599999518e-12

surfaceFieldValue particle_1_surfaceIntegral_elec write:
    areaIntegrate(particle_1_to_Elec) of T = 1.399231978e-06

volFieldValue particle_2_volumeIntegral write:
    volIntegrate(particle_2) of T = 4.000001053e-13

surfaceFieldValue particle_2_surfaceIntegral_elec write:
    areaIntegrate(particle_2_to_Elec) of T = 5.997046157e-07

Region: particle_1 Diffusion Number mean: 0.6589973786 max: 2.635989515
Region: particle_2 Diffusion Number mean: 0.6589973786 max: 2.635989515
deltaT = 0.1976337719
Time = 1.18043


Solving for solid region particle_1
DICPCG:  Solving for h, Initial residual = 0.07703107314, Final residual = 2.099013803e-09, No Iterations 9
Min/max T:99896.25518 100011.6526

Solving for solid region particle_2
DICPCG:  Solving for h, Initial residual = 0.06443657924, Final residual = 1.612304635e-09, No Iterations 9
Min/max T:99903.9016 100018.1391
ExecutionTime = 0.15 s  ClockTime = 0 s

volFieldValue particle_1_volumeIntegral write:
    volIntegrate(particle_1) of T = 1.599999355e-12

surfaceFieldValue particle_1_surfaceIntegral_elec write:
    areaIntegrate(particle_1_to_Elec) of T = 1.399165942e-06

volFieldValue particle_2_volumeIntegral write:
    volIntegrate(particle_2) of T = 4.000001092e-13

surfaceFieldValue particle_2_surfaceIntegral_elec write:
    areaIntegrate(particle_2_to_Elec) of T = 5.996829713e-07

Region: particle_1 Diffusion Number mean: 0.7905350878 max: 3.162140351
Region: particle_2 Diffusion Number mean: 0.7905350878 max: 3.162140351
deltaT = 0.2372548623
Time = 1.41768


Solving for solid region particle_1
DICPCG:  Solving for h, Initial residual = 0.07549401236, Final residual = 8.061770102e-09, No Iterations 9
Min/max T:99886.5104 100013.8705

Solving for solid region particle_2
DICPCG:  Solving for h, Initial residual = 0.06190402244, Final residual = 6.047735078e-09, No Iterations 9
Min/max T:99895.69361 100021.575
ExecutionTime = 0.16 s  ClockTime = 0 s

volFieldValue particle_1_volumeIntegral write:
    volIntegrate(particle_1) of T = 1.599999137e-12

surfaceFieldValue particle_1_surfaceIntegral_elec write:
    areaIntegrate(particle_1_to_Elec) of T = 1.399094446e-06

volFieldValue particle_2_volumeIntegral write:
    volIntegrate(particle_2) of T = 4.000001031e-13

surfaceFieldValue particle_2_surfaceIntegral_elec write:
    areaIntegrate(particle_2_to_Elec) of T = 5.996602502e-07

Region: particle_1 Diffusion Number mean: 0.9490194491 max: 3.796077796
Region: particle_2 Diffusion Number mean: 0.9490194491 max: 3.796077796
deltaT = 0.2845018907
Time = 1.70218


Solving for solid region particle_1
DICPCG:  Solving for h, Initial residual = 0.07406134228, Final residual = 5.803542195e-09, No Iterations 10
Min/max T:99876.04328 100016.4538

Solving for solid region particle_2
DICPCG:  Solving for h, Initial residual = 0.05909181412, Final residual = 4.148502817e-09, No Iterations 10
Min/max T:99887.0691 100025.5115
ExecutionTime = 0.16 s  ClockTime = 0 s

volFieldValue particle_1_volumeIntegral write:
    volIntegrate(particle_1) of T = 1.599998845e-12

surfaceFieldValue particle_1_surfaceIntegral_elec write:
    areaIntegrate(particle_1_to_Elec) of T = 1.399017304e-06

volFieldValue particle_2_volumeIntegral write:
    volIntegrate(particle_2) of T = 4.000000792e-13

surfaceFieldValue particle_2_surfaceIntegral_elec write:
    areaIntegrate(particle_2_to_Elec) of T = 5.99636578e-07

Region: particle_1 Diffusion Number mean: 1.138007563 max: 4.552030251
Region: particle_2 Diffusion Number mean: 1.138007563 max: 4.552030251
deltaT = 0.3413043336
Time = 2.04349


Solving for solid region particle_1
DICPCG:  Solving for h, Initial residual = 0.07262024032, Final residual = 4.8948388e-09, No Iterations 11
Min/max T:99864.8275 100019.4381

Solving for solid region particle_2
DICPCG:  Solving for h, Initial residual = 0.05624278174, Final residual = 3.111233278e-09, No Iterations 11
Min/max T:99878.06294 100029.9341
ExecutionTime = 0.17 s  ClockTime = 0 s

volFieldValue particle_1_volumeIntegral write:
    volIntegrate(particle_1) of T = 1.599998456e-12

surfaceFieldValue particle_1_surfaceIntegral_elec write:
    areaIntegrate(particle_1_to_Elec) of T = 1.39893426e-06

volFieldValue particle_2_volumeIntegral write:
    volIntegrate(particle_2) of T = 4.000000252e-13

surfaceFieldValue particle_2_surfaceIntegral_elec write:
    areaIntegrate(particle_2_to_Elec) of T = 5.996120846e-07

Region: particle_1 Diffusion Number mean: 1.365217334 max: 5.460869338
Region: particle_2 Diffusion Number mean: 1.365217334 max: 5.460869338
deltaT = 0.409847854
Time = 2.45333


Solving for solid region particle_1
DICPCG:  Solving for h, Initial residual = 0.07096936547, Final residual = 4.459625167e-09, No Iterations 12
Min/max T:99852.83692 100022.8544

Solving for solid region particle_2
DICPCG:  Solving for h, Initial residual = 0.05326272468, Final residual = 8.176702138e-09, No Iterations 11
Min/max T:99868.72277 100034.7913
ExecutionTime = 0.17 s  ClockTime = 0 s

volFieldValue particle_1_volumeIntegral write:
    volIntegrate(particle_1) of T = 1.59999794e-12

surfaceFieldValue particle_1_surfaceIntegral_elec write:
    areaIntegrate(particle_1_to_Elec) of T = 1.398845074e-06

volFieldValue particle_2_volumeIntegral write:
    volIntegrate(particle_2) of T = 3.999999212e-13

surfaceFieldValue particle_2_surfaceIntegral_elec write:
    areaIntegrate(particle_2_to_Elec) of T = 5.995869298e-07

Region: particle_1 Diffusion Number mean: 1.639391416 max: 6.557565664
Region: particle_2 Diffusion Number mean: 1.639391416 max: 6.557565664
deltaT = 0.491409616
Time = 2.94474


Solving for solid region particle_1
DICPCG:  Solving for h, Initial residual = 0.06892116821, Final residual = 4.121767182e-09, No Iterations 13
Min/max T:99840.08221 100026.7215

Solving for solid region particle_2
DICPCG:  Solving for h, Initial residual = 0.05018084809, Final residual = 8.06477765e-09, No Iterations 12
Min/max T:99859.13719 100039.9764
ExecutionTime = 0.18 s  ClockTime = 0 s

volFieldValue particle_1_volumeIntegral write:
    volIntegrate(particle_1) of T = 1.599997263e-12

surfaceFieldValue particle_1_surfaceIntegral_elec write:
    areaIntegrate(particle_1_to_Elec) of T = 1.398749809e-06

volFieldValue particle_2_volumeIntegral write:
    volIntegrate(particle_2) of T = 3.999997378e-13

surfaceFieldValue particle_2_surfaceIntegral_elec write:
    areaIntegrate(particle_2_to_Elec) of T = 5.995613711e-07

Region: particle_1 Diffusion Number mean: 1.965638464 max: 7.862553856
Region: particle_2 Diffusion Number mean: 1.965638464 max: 7.862553856
deltaT = 0.5899857965
Time = 3.53473


Solving for solid region particle_1
DICPCG:  Solving for h, Initial residual = 0.06677283349, Final residual = 4.969489928e-09, No Iterations 14
Min/max T:99826.55287 100031.9758

Solving for solid region particle_2
DICPCG:  Solving for h, Initial residual = 0.04715503568, Final residual = 8.072518856e-09, No Iterations 13
Min/max T:99849.38973 100045.4631
ExecutionTime = 0.19 s  ClockTime = 0 s

volFieldValue particle_1_volumeIntegral write:
    volIntegrate(particle_1) of T = 1.599996383e-12

surfaceFieldValue particle_1_surfaceIntegral_elec write:
    areaIntegrate(particle_1_to_Elec) of T = 1.39864841e-06

volFieldValue particle_2_volumeIntegral write:
    volIntegrate(particle_2) of T = 3.999994311e-13

surfaceFieldValue particle_2_surfaceIntegral_elec write:
    areaIntegrate(particle_2_to_Elec) of T = 5.995356322e-07

Region: particle_1 Diffusion Number mean: 2.359943186 max: 9.439772744
Region: particle_2 Diffusion Number mean: 2.359943186 max: 9.439772744
deltaT = 0.625685574
Time = 4.16042


Solving for solid region particle_1
DICPCG:  Solving for h, Initial residual = 0.0582217764, Final residual = 6.670562599e-09, No Iterations 14
Min/max T:99813.77355 100037.5365

Solving for solid region particle_2
DICPCG:  Solving for h, Initial residual = 0.04067786522, Final residual = 3.007629376e-09, No Iterations 14
Min/max T:99840.58106 100050.4999
ExecutionTime = 0.19 s  ClockTime = 0 s

volFieldValue particle_1_volumeIntegral write:
    volIntegrate(particle_1) of T = 1.599995457e-12

surfaceFieldValue particle_1_surfaceIntegral_elec write:
    areaIntegrate(particle_1_to_Elec) of T = 1.398552429e-06

volFieldValue particle_2_volumeIntegral write:
    volIntegrate(particle_2) of T = 3.999990446e-13

surfaceFieldValue particle_2_surfaceIntegral_elec write:
    areaIntegrate(particle_2_to_Elec) of T = 5.995125644e-07

Region: particle_1 Diffusion Number mean: 2.502742296 max: 10.01096918
Region: particle_2 Diffusion Number mean: 2.502742296 max: 10.01096918
deltaT = 0.625685574
Time = 4.7861


Solving for solid region particle_1
DICPCG:  Solving for h, Initial residual = 0.04906498392, Final residual = 5.5104408e-09, No Iterations 14
Min/max T:99802.25863 100043.0185

Solving for solid region particle_2
DICPCG:  Solving for h, Initial residual = 0.03442954483, Final residual = 8.761826218e-09, No Iterations 13
Min/max T:99832.98197 100054.8641
ExecutionTime = 0.2 s  ClockTime = 0 s

volFieldValue particle_1_volumeIntegral write:
    volIntegrate(particle_1) of T = 1.599994576e-12

surfaceFieldValue particle_1_surfaceIntegral_elec write:
    areaIntegrate(particle_1_to_Elec) of T = 1.398465878e-06

volFieldValue particle_2_volumeIntegral write:
    volIntegrate(particle_2) of T = 3.999986229e-13

surfaceFieldValue particle_2_surfaceIntegral_elec write:
    areaIntegrate(particle_2_to_Elec) of T = 5.994927996e-07

Region: particle_1 Diffusion Number mean: 2.502742296 max: 10.01096918
Region: particle_2 Diffusion Number mean: 2.502742296 max: 10.01096918
deltaT = 0.625685574
Time = 5.41179


Solving for solid region particle_1
DICPCG:  Solving for h, Initial residual = 0.04211750783, Final residual = 4.64464845e-09, No Iterations 14
Min/max T:99791.78802 100048.3998

Solving for solid region particle_2
DICPCG:  Solving for h, Initial residual = 0.02983174734, Final residual = 7.574986342e-09, No Iterations 13
Min/max T:99826.35835 100058.7709
ExecutionTime = 0.21 s  ClockTime = 0 s

volFieldValue particle_1_volumeIntegral write:
    volIntegrate(particle_1) of T = 1.599993742e-12

surfaceFieldValue particle_1_surfaceIntegral_elec write:
    areaIntegrate(particle_1_to_Elec) of T = 1.398387211e-06

volFieldValue particle_2_volumeIntegral write:
    volIntegrate(particle_2) of T = 3.999981742e-13

surfaceFieldValue particle_2_surfaceIntegral_elec write:
    areaIntegrate(particle_2_to_Elec) of T = 5.994756665e-07

Region: particle_1 Diffusion Number mean: 2.502742296 max: 10.01096918
Region: particle_2 Diffusion Number mean: 2.502742296 max: 10.01096918
deltaT = 0.625685574
Time = 6.03747


Solving for solid region particle_1
DICPCG:  Solving for h, Initial residual = 0.03667784168, Final residual = 3.980436271e-09, No Iterations 14
Min/max T:99782.19718 100053.6603

Solving for solid region particle_2
DICPCG:  Solving for h, Initial residual = 0.02622845926, Final residual = 6.7010221e-09, No Iterations 13
Min/max T:99820.53312 100062.2888
ExecutionTime = 0.21 s  ClockTime = 0 s

volFieldValue particle_1_volumeIntegral write:
    volIntegrate(particle_1) of T = 1.599992957e-12

surfaceFieldValue particle_1_surfaceIntegral_elec write:
    areaIntegrate(particle_1_to_Elec) of T = 1.39831526e-06

volFieldValue particle_2_volumeIntegral write:
    volIntegrate(particle_2) of T = 3.999977043e-13

surfaceFieldValue particle_2_surfaceIntegral_elec write:
    areaIntegrate(particle_2_to_Elec) of T = 5.994606628e-07

Region: particle_1 Diffusion Number mean: 2.502742296 max: 10.01096918
Region: particle_2 Diffusion Number mean: 2.502742296 max: 10.01096918
deltaT = 0.625685574
Time = 6.66316


Solving for solid region particle_1
DICPCG:  Solving for h, Initial residual = 0.03229489627, Final residual = 3.456572581e-09, No Iterations 14
Min/max T:99773.35972 100058.7828

Solving for solid region particle_2
DICPCG:  Solving for h, Initial residual = 0.0233626283, Final residual = 6.01972801e-09, No Iterations 13
Min/max T:99815.36928 100065.4298
ExecutionTime = 0.21 s  ClockTime = 0 s

volFieldValue particle_1_volumeIntegral write:
    volIntegrate(particle_1) of T = 1.599992222e-12

surfaceFieldValue particle_1_surfaceIntegral_elec write:
    areaIntegrate(particle_1_to_Elec) of T = 1.39824912e-06

volFieldValue particle_2_volumeIntegral write:
    volIntegrate(particle_2) of T = 3.999972178e-13

surfaceFieldValue particle_2_surfaceIntegral_elec write:
    areaIntegrate(particle_2_to_Elec) of T = 5.994474047e-07

Region: particle_1 Diffusion Number mean: 2.502742296 max: 10.01096918
Region: particle_2 Diffusion Number mean: 2.502742296 max: 10.01096918
deltaT = 0.625685574
Time = 7.28884


Solving for solid region particle_1
DICPCG:  Solving for h, Initial residual = 0.02869337407, Final residual = 9.288571084e-09, No Iterations 13
Min/max T:99765.1762 100063.7528

Solving for solid region particle_2
DICPCG:  Solving for h, Initial residual = 0.02100194714, Final residual = 5.465448139e-09, No Iterations 13
Min/max T:99810.75896 100068.287
ExecutionTime = 0.23 s  ClockTime = 0 s

volFieldValue particle_1_volumeIntegral write:
    volIntegrate(particle_1) of T = 1.599991537e-12

surfaceFieldValue particle_1_surfaceIntegral_elec write:
    areaIntegrate(particle_1_to_Elec) of T = 1.39818807e-06

volFieldValue particle_2_volumeIntegral write:
    volIntegrate(particle_2) of T = 3.999967193e-13

surfaceFieldValue particle_2_surfaceIntegral_elec write:
    areaIntegrate(particle_2_to_Elec) of T = 5.994355938e-07

Region: particle_1 Diffusion Number mean: 2.502742296 max: 10.01096918
Region: particle_2 Diffusion Number mean: 2.502742296 max: 10.01096918
deltaT = 0.625685574
Time = 7.91453


Solving for solid region particle_1
DICPCG:  Solving for h, Initial residual = 0.02568270898, Final residual = 8.239471343e-09, No Iterations 13
Min/max T:99757.5669 100068.5593

Solving for solid region particle_2
DICPCG:  Solving for h, Initial residual = 0.01900352214, Final residual = 4.9901328e-09, No Iterations 13
Min/max T:99806.61609 100071.0501
ExecutionTime = 0.23 s  ClockTime = 0 s

volFieldValue particle_1_volumeIntegral write:
    volIntegrate(particle_1) of T = 1.5999909e-12

surfaceFieldValue particle_1_surfaceIntegral_elec write:
    areaIntegrate(particle_1_to_Elec) of T = 1.398131527e-06

volFieldValue particle_2_volumeIntegral write:
    volIntegrate(particle_2) of T = 3.999962131e-13

surfaceFieldValue particle_2_surfaceIntegral_elec write:
    areaIntegrate(particle_2_to_Elec) of T = 5.994249951e-07

Region: particle_1 Diffusion Number mean: 2.502742296 max: 10.01096918
Region: particle_2 Diffusion Number mean: 2.502742296 max: 10.01096918
deltaT = 0.625685574
Time = 8.54021


Solving for solid region particle_1
DICPCG:  Solving for h, Initial residual = 0.02313097714, Final residual = 7.359675291e-09, No Iterations 13
Min/max T:99750.46672 100073.1941

Solving for solid region particle_2
DICPCG:  Solving for h, Initial residual = 0.01730625199, Final residual = 4.566333577e-09, No Iterations 13
Min/max T:99802.87126 100073.5859
ExecutionTime = 0.24 s  ClockTime = 0 s

volFieldValue particle_1_volumeIntegral write:
    volIntegrate(particle_1) of T = 1.599990307e-12

surfaceFieldValue particle_1_surfaceIntegral_elec write:
    areaIntegrate(particle_1_to_Elec) of T = 1.398079009e-06

volFieldValue particle_2_volumeIntegral write:
    volIntegrate(particle_2) of T = 3.999957031e-13

surfaceFieldValue particle_2_surfaceIntegral_elec write:
    areaIntegrate(particle_2_to_Elec) of T = 5.994154216e-07

Region: particle_1 Diffusion Number mean: 2.502742296 max: 10.01096918
Region: particle_2 Diffusion Number mean: 2.502742296 max: 10.01096918
deltaT = 0.625685574
Time = 9.1659


Solving for solid region particle_1
DICPCG:  Solving for h, Initial residual = 0.02094280544, Final residual = 6.611513511e-09, No Iterations 13
Min/max T:99743.82173 100077.652

Solving for solid region particle_2
DICPCG:  Solving for h, Initial residual = 0.01582994359, Final residual = 4.183375412e-09, No Iterations 13
Min/max T:99799.46799 100075.9211
ExecutionTime = 0.24 s  ClockTime = 0 s

volFieldValue particle_1_volumeIntegral write:
    volIntegrate(particle_1) of T = 1.599989756e-12

surfaceFieldValue particle_1_surfaceIntegral_elec write:
    areaIntegrate(particle_1_to_Elec) of T = 1.398030112e-06

volFieldValue particle_2_volumeIntegral write:
    volIntegrate(particle_2) of T = 3.999951932e-13

surfaceFieldValue particle_2_surfaceIntegral_elec write:
    areaIntegrate(particle_2_to_Elec) of T = 5.994067233e-07

Region: particle_1 Diffusion Number mean: 2.502742296 max: 10.01096918
Region: particle_2 Diffusion Number mean: 2.502742296 max: 10.01096918
deltaT = 0.625685574
Time = 9.79159


Solving for solid region particle_1
DICPCG:  Solving for h, Initial residual = 0.01904459977, Final residual = 5.968311586e-09, No Iterations 13
Min/max T:99737.58668 100081.9301

Solving for solid region particle_2
DICPCG:  Solving for h, Initial residual = 0.01453866884, Final residual = 3.837058586e-09, No Iterations 13
Min/max T:99796.35998 100078.1855
ExecutionTime = 0.24 s  ClockTime = 0 s

volFieldValue particle_1_volumeIntegral write:
    volIntegrate(particle_1) of T = 1.599989242e-12

surfaceFieldValue particle_1_surfaceIntegral_elec write:
    areaIntegrate(particle_1_to_Elec) of T = 1.397984493e-06

volFieldValue particle_2_volumeIntegral write:
    volIntegrate(particle_2) of T = 3.999946867e-13

surfaceFieldValue particle_2_surfaceIntegral_elec write:
    areaIntegrate(particle_2_to_Elec) of T = 5.993987787e-07

Region: particle_1 Diffusion Number mean: 2.502742296 max: 10.01096918
Region: particle_2 Diffusion Number mean: 2.502742296 max: 10.01096918
deltaT = 0.625685574
Time = 10.4173


Solving for solid region particle_1
DICPCG:  Solving for h, Initial residual = 0.0173897035, Final residual = 5.410739359e-09, No Iterations 13
Min/max T:99731.72309 100086.0277

Solving for solid region particle_2
DICPCG:  Solving for h, Initial residual = 0.0134061285, Final residual = 3.524069218e-09, No Iterations 13
Min/max T:99793.50902 100080.4
ExecutionTime = 0.26 s  ClockTime = 0 s

volFieldValue particle_1_volumeIntegral write:
    volIntegrate(particle_1) of T = 1.599988763e-12

surfaceFieldValue particle_1_surfaceIntegral_elec write:
    areaIntegrate(particle_1_to_Elec) of T = 1.397941859e-06

volFieldValue particle_2_volumeIntegral write:
    volIntegrate(particle_2) of T = 3.999941868e-13

surfaceFieldValue particle_2_surfaceIntegral_elec write:
    areaIntegrate(particle_2_to_Elec) of T = 5.99391489e-07

Region: particle_1 Diffusion Number mean: 2.502742296 max: 10.01096918
Region: particle_2 Diffusion Number mean: 2.502742296 max: 10.01096918
deltaT = 0.625685574
Time = 11.043


Solving for solid region particle_1
DICPCG:  Solving for h, Initial residual = 0.01593562381, Final residual = 4.923296378e-09, No Iterations 13
Min/max T:99726.19793 100089.9458

Solving for solid region particle_2
DICPCG:  Solving for h, Initial residual = 0.01239458146, Final residual = 3.244031615e-09, No Iterations 13
Min/max T:99790.8834 100082.4717
ExecutionTime = 0.26 s  ClockTime = 0 s

volFieldValue particle_1_volumeIntegral write:
    volIntegrate(particle_1) of T = 1.599988314e-12

surfaceFieldValue particle_1_surfaceIntegral_elec write:
    areaIntegrate(particle_1_to_Elec) of T = 1.397901953e-06

volFieldValue particle_2_volumeIntegral write:
    volIntegrate(particle_2) of T = 3.999936962e-13

surfaceFieldValue particle_2_surfaceIntegral_elec write:
    areaIntegrate(particle_2_to_Elec) of T = 5.993847729e-07

Region: particle_1 Diffusion Number mean: 2.502742296 max: 10.01096918
Region: particle_2 Diffusion Number mean: 2.502742296 max: 10.01096918
deltaT = 0.625685574
Time = 11.6686


Solving for solid region particle_1
DICPCG:  Solving for h, Initial residual = 0.01464726726, Final residual = 4.493903853e-09, No Iterations 13
Min/max T:99720.98256 100093.6869

Solving for solid region particle_2
DICPCG:  Solving for h, Initial residual = 0.01148881565, Final residual = 2.993798101e-09, No Iterations 13
Min/max T:99788.4566 100084.4133
ExecutionTime = 0.27 s  ClockTime = 0 s

volFieldValue particle_1_volumeIntegral write:
    volIntegrate(particle_1) of T = 1.599987893e-12

surfaceFieldValue particle_1_surfaceIntegral_elec write:
    areaIntegrate(particle_1_to_Elec) of T = 1.397864553e-06

volFieldValue particle_2_volumeIntegral write:
    volIntegrate(particle_2) of T = 3.999932176e-13

surfaceFieldValue particle_2_surfaceIntegral_elec write:
    areaIntegrate(particle_2_to_Elec) of T = 5.993785634e-07

Region: particle_1 Diffusion Number mean: 2.502742296 max: 10.01096918
Region: particle_2 Diffusion Number mean: 2.502742296 max: 10.01096918
deltaT = 0.625685574
Time = 12.2943


Solving for solid region particle_1
DICPCG:  Solving for h, Initial residual = 0.01349980176, Final residual = 4.113985989e-09, No Iterations 13
Min/max T:99716.05196 100097.2544

Solving for solid region particle_2
DICPCG:  Solving for h, Initial residual = 0.01067549465, Final residual = 2.770959823e-09, No Iterations 13
Min/max T:99786.20635 100086.2781
ExecutionTime = 0.28 s  ClockTime = 0 s

volFieldValue particle_1_volumeIntegral write:
    volIntegrate(particle_1) of T = 1.599987494e-12

surfaceFieldValue particle_1_surfaceIntegral_elec write:
    areaIntegrate(particle_1_to_Elec) of T = 1.39782946e-06

volFieldValue particle_2_volumeIntegral write:
    volIntegrate(particle_2) of T = 3.999927529e-13

surfaceFieldValue particle_2_surfaceIntegral_elec write:
    areaIntegrate(particle_2_to_Elec) of T = 5.993728047e-07

Region: particle_1 Diffusion Number mean: 2.502742296 max: 10.01096918
Region: particle_2 Diffusion Number mean: 2.502742296 max: 10.01096918
deltaT = 0.625685574
Time = 12.92


Solving for solid region particle_1
DICPCG:  Solving for h, Initial residual = 0.01247436084, Final residual = 3.7761534e-09, No Iterations 13
Min/max T:99711.38405 100100.664

Solving for solid region particle_2
DICPCG:  Solving for h, Initial residual = 0.009943860014, Final residual = 2.572470426e-09, No Iterations 13
Min/max T:99784.11384 100088.182
ExecutionTime = 0.28 s  ClockTime = 0 s

volFieldValue particle_1_volumeIntegral write:
    volIntegrate(particle_1) of T = 1.599987116e-12

surfaceFieldValue particle_1_surfaceIntegral_elec write:
    areaIntegrate(particle_1_to_Elec) of T = 1.3977965e-06

volFieldValue particle_2_volumeIntegral write:
    volIntegrate(particle_2) of T = 3.999923042e-13

surfaceFieldValue particle_2_surfaceIntegral_elec write:
    areaIntegrate(particle_2_to_Elec) of T = 5.9936745e-07

Region: particle_1 Diffusion Number mean: 2.502742296 max: 10.01096918
Region: particle_2 Diffusion Number mean: 2.502742296 max: 10.01096918
deltaT = 0.625685574
Time = 13.5457


Solving for solid region particle_1
DICPCG:  Solving for h, Initial residual = 0.01155582174, Final residual = 3.474302055e-09, No Iterations 13
Min/max T:99706.95924 100103.9151

Solving for solid region particle_2
DICPCG:  Solving for h, Initial residual = 0.009281964203, Final residual = 2.395003185e-09, No Iterations 13
Min/max T:99782.16305 100089.9813
ExecutionTime = 0.29 s  ClockTime = 0 s

volFieldValue particle_1_volumeIntegral write:
    volIntegrate(particle_1) of T = 1.599986755e-12

surfaceFieldValue particle_1_surfaceIntegral_elec write:
    areaIntegrate(particle_1_to_Elec) of T = 1.397765514e-06

volFieldValue particle_2_volumeIntegral write:
    volIntegrate(particle_2) of T = 3.999918731e-13

surfaceFieldValue particle_2_surfaceIntegral_elec write:
    areaIntegrate(particle_2_to_Elec) of T = 5.9936246e-07

Region: particle_1 Diffusion Number mean: 2.502742296 max: 10.01096918
Region: particle_2 Diffusion Number mean: 2.502742296 max: 10.01096918
deltaT = 0.625685574
Time = 14.1714


Solving for solid region particle_1
DICPCG:  Solving for h, Initial residual = 0.01072691269, Final residual = 3.203958083e-09, No Iterations 13
Min/max T:99702.76004 100107.0101

Solving for solid region particle_2
DICPCG:  Solving for h, Initial residual = 0.00867794104, Final residual = 9.410368624e-09, No Iterations 12
Min/max T:99780.34029 100091.6836
ExecutionTime = 0.3 s  ClockTime = 0 s

volFieldValue particle_1_volumeIntegral write:
    volIntegrate(particle_1) of T = 1.599986407e-12

surfaceFieldValue particle_1_surfaceIntegral_elec write:
    areaIntegrate(particle_1_to_Elec) of T = 1.397736362e-06

volFieldValue particle_2_volumeIntegral write:
    volIntegrate(particle_2) of T = 3.999914611e-13

surfaceFieldValue particle_2_surfaceIntegral_elec write:
    areaIntegrate(particle_2_to_Elec) of T = 5.993578011e-07

Region: particle_1 Diffusion Number mean: 2.502742296 max: 10.01096918
Region: particle_2 Diffusion Number mean: 2.502742296 max: 10.01096918
deltaT = 0.625685574
Time = 14.7971


Solving for solid region particle_1
DICPCG:  Solving for h, Initial residual = 0.009977748403, Final residual = 9.869435245e-09, No Iterations 12
Min/max T:99698.7707 100109.9547

Solving for solid region particle_2
DICPCG:  Solving for h, Initial residual = 0.008125969652, Final residual = 8.831210386e-09, No Iterations 12
Min/max T:99778.63379 100093.2956
ExecutionTime = 0.3 s  ClockTime = 0 s

volFieldValue particle_1_volumeIntegral write:
    volIntegrate(particle_1) of T = 1.599986071e-12

surfaceFieldValue particle_1_surfaceIntegral_elec write:
    areaIntegrate(particle_1_to_Elec) of T = 1.397708914e-06

volFieldValue particle_2_volumeIntegral write:
    volIntegrate(particle_2) of T = 3.999910692e-13

surfaceFieldValue particle_2_surfaceIntegral_elec write:
    areaIntegrate(particle_2_to_Elec) of T = 5.993534448e-07

Region: particle_1 Diffusion Number mean: 2.502742296 max: 10.01096918
Region: particle_2 Diffusion Number mean: 2.502742296 max: 10.01096918
deltaT = 0.625685574
Time = 15.4228


Solving for solid region particle_1
DICPCG:  Solving for h, Initial residual = 0.009299838345, Final residual = 9.159205866e-09, No Iterations 12
Min/max T:99694.97704 100112.7549

Solving for solid region particle_2
DICPCG:  Solving for h, Initial residual = 0.007621218921, Final residual = 8.306596491e-09, No Iterations 12
Min/max T:99777.03335 100094.8238
ExecutionTime = 0.31 s  ClockTime = 0 s

volFieldValue particle_1_volumeIntegral write:
    volIntegrate(particle_1) of T = 1.599985744e-12

surfaceFieldValue particle_1_surfaceIntegral_elec write:
    areaIntegrate(particle_1_to_Elec) of T = 1.397683055e-06

volFieldValue particle_2_volumeIntegral write:
    volIntegrate(particle_2) of T = 3.999906986e-13

surfaceFieldValue particle_2_surfaceIntegral_elec write:
    areaIntegrate(particle_2_to_Elec) of T = 5.993493662e-07

Region: particle_1 Diffusion Number mean: 2.502742296 max: 10.01096918
Region: particle_2 Diffusion Number mean: 2.502742296 max: 10.01096918
deltaT = 0.625685574
Time = 16.0484


Solving for solid region particle_1
DICPCG:  Solving for h, Initial residual = 0.008684515146, Final residual = 8.517407107e-09, No Iterations 12
Min/max T:99691.36615 100115.4165

Solving for solid region particle_2
DICPCG:  Solving for h, Initial residual = 0.00715796967, Final residual = 7.828792421e-09, No Iterations 12
Min/max T:99775.53009 100096.4021
ExecutionTime = 0.32 s  ClockTime = 0 s

volFieldValue particle_1_volumeIntegral write:
    volIntegrate(particle_1) of T = 1.599985422e-12

surfaceFieldValue particle_1_surfaceIntegral_elec write:
    areaIntegrate(particle_1_to_Elec) of T = 1.397658677e-06

volFieldValue particle_2_volumeIntegral write:
    volIntegrate(particle_2) of T = 3.9999035e-13

surfaceFieldValue particle_2_surfaceIntegral_elec write:
    areaIntegrate(particle_2_to_Elec) of T = 5.993455439e-07

Region: particle_1 Diffusion Number mean: 2.502742296 max: 10.01096918
Region: particle_2 Diffusion Number mean: 2.502742296 max: 10.01096918
deltaT = 0.625685574
Time = 16.6741


Solving for solid region particle_1
DICPCG:  Solving for h, Initial residual = 0.00812409115, Final residual = 7.936385247e-09, No Iterations 12
Min/max T:99687.92628 100117.9456

Solving for solid region particle_2
DICPCG:  Solving for h, Initial residual = 0.006731718433, Final residual = 7.39141591e-09, No Iterations 12
Min/max T:99774.11623 100097.93
ExecutionTime = 0.32 s  ClockTime = 0 s

volFieldValue particle_1_volumeIntegral write:
    volIntegrate(particle_1) of T = 1.599985106e-12

surfaceFieldValue particle_1_surfaceIntegral_elec write:
    areaIntegrate(particle_1_to_Elec) of T = 1.397635683e-06

volFieldValue particle_2_volumeIntegral write:
    volIntegrate(particle_2) of T = 3.999900241e-13

surfaceFieldValue particle_2_surfaceIntegral_elec write:
    areaIntegrate(particle_2_to_Elec) of T = 5.993419591e-07

Region: particle_1 Diffusion Number mean: 2.502742296 max: 10.01096918
Region: particle_2 Diffusion Number mean: 2.502742296 max: 10.01096918
deltaT = 0.625685574
Time = 17.2998


Solving for solid region particle_1
DICPCG:  Solving for h, Initial residual = 0.007612287077, Final residual = 7.409588768e-09, No Iterations 12
Min/max T:99684.64667 100120.3481

Solving for solid region particle_2
DICPCG:  Solving for h, Initial residual = 0.006338788043, Final residual = 6.990118844e-09, No Iterations 12
Min/max T:99772.78491 100099.3848
ExecutionTime = 0.33 s  ClockTime = 0 s

volFieldValue particle_1_volumeIntegral write:
    volIntegrate(particle_1) of T = 1.599984791e-12

surfaceFieldValue particle_1_surfaceIntegral_elec write:
    areaIntegrate(particle_1_to_Elec) of T = 1.397613982e-06

volFieldValue particle_2_volumeIntegral write:
    volIntegrate(particle_2) of T = 3.999897214e-13

surfaceFieldValue particle_2_surfaceIntegral_elec write:
    areaIntegrate(particle_2_to_Elec) of T = 5.993385954e-07

Region: particle_1 Diffusion Number mean: 2.502742296 max: 10.01096918
Region: particle_2 Diffusion Number mean: 2.502742296 max: 10.01096918
deltaT = 0.625685574
Time = 17.9255


Solving for solid region particle_1
DICPCG:  Solving for h, Initial residual = 0.007143240626, Final residual = 6.931381523e-09, No Iterations 12
Min/max T:99681.51746 100122.6298

Solving for solid region particle_2
DICPCG:  Solving for h, Initial residual = 0.005976362574, Final residual = 6.620861611e-09, No Iterations 12
Min/max T:99771.53006 100100.7712
ExecutionTime = 0.33 s  ClockTime = 0 s

volFieldValue particle_1_volumeIntegral write:
    volIntegrate(particle_1) of T = 1.599984478e-12

surfaceFieldValue particle_1_surfaceIntegral_elec write:
    areaIntegrate(particle_1_to_Elec) of T = 1.397593492e-06

volFieldValue particle_2_volumeIntegral write:
    volIntegrate(particle_2) of T = 3.999894423e-13

surfaceFieldValue particle_2_surfaceIntegral_elec write:
    areaIntegrate(particle_2_to_Elec) of T = 5.993354379e-07

Region: particle_1 Diffusion Number mean: 2.502742296 max: 10.01096918
Region: particle_2 Diffusion Number mean: 2.502742296 max: 10.01096918
deltaT = 0.625685574
Time = 18.5512


Solving for solid region particle_1
DICPCG:  Solving for h, Initial residual = 0.006713506197, Final residual = 6.496763694e-09, No Iterations 12
Min/max T:99678.52955 100124.7964

Solving for solid region particle_2
DICPCG:  Solving for h, Initial residual = 0.00564103919, Final residual = 6.279715187e-09, No Iterations 12
Min/max T:99770.34628 100102.0934
ExecutionTime = 0.34 s  ClockTime = 0 s

volFieldValue particle_1_volumeIntegral write:
    volIntegrate(particle_1) of T = 1.599984163e-12

surfaceFieldValue particle_1_surfaceIntegral_elec write:
    areaIntegrate(particle_1_to_Elec) of T = 1.397574136e-06

volFieldValue particle_2_volumeIntegral write:
    volIntegrate(particle_2) of T = 3.999891872e-13

surfaceFieldValue particle_2_surfaceIntegral_elec write:
    areaIntegrate(particle_2_to_Elec) of T = 5.993324736e-07

Region: particle_1 Diffusion Number mean: 2.502742296 max: 10.01096918
Region: particle_2 Diffusion Number mean: 2.502742296 max: 10.01096918
deltaT = 0.625685574
Time = 19.1769


Solving for solid region particle_1
DICPCG:  Solving for h, Initial residual = 0.006319060164, Final residual = 6.10143437e-09, No Iterations 12
Min/max T:99675.67454 100126.8534

Solving for solid region particle_2
DICPCG:  Solving for h, Initial residual = 0.005330267612, Final residual = 5.964317091e-09, No Iterations 12
Min/max T:99769.22871 100103.3553
ExecutionTime = 0.35 s  ClockTime = 0 s

volFieldValue particle_1_volumeIntegral write:
    volIntegrate(particle_1) of T = 1.599983846e-12

surfaceFieldValue particle_1_surfaceIntegral_elec write:
    areaIntegrate(particle_1_to_Elec) of T = 1.397555842e-06

volFieldValue particle_2_volumeIntegral write:
    volIntegrate(particle_2) of T = 3.999889561e-13

surfaceFieldValue particle_2_surfaceIntegral_elec write:
    areaIntegrate(particle_2_to_Elec) of T = 5.993296907e-07

Region: particle_1 Diffusion Number mean: 2.502742296 max: 10.01096918
Region: particle_2 Diffusion Number mean: 2.502742296 max: 10.01096918
deltaT = 0.625685574
Time = 19.8026


Solving for solid region particle_1
DICPCG:  Solving for h, Initial residual = 0.005956394501, Final residual = 5.741348777e-09, No Iterations 12
Min/max T:99672.94466 100128.8061

Solving for solid region particle_2
DICPCG:  Solving for h, Initial residual = 0.005041879607, Final residual = 5.672401975e-09, No Iterations 12
Min/max T:99768.173 100104.5607
ExecutionTime = 0.35 s  ClockTime = 0 s

volFieldValue particle_1_volumeIntegral write:
    volIntegrate(particle_1) of T = 1.599983525e-12

surfaceFieldValue particle_1_surfaceIntegral_elec write:
    areaIntegrate(particle_1_to_Elec) of T = 1.397538544e-06

volFieldValue particle_2_volumeIntegral write:
    volIntegrate(particle_2) of T = 3.999887492e-13

surfaceFieldValue particle_2_surfaceIntegral_elec write:
    areaIntegrate(particle_2_to_Elec) of T = 5.993270786e-07

Region: particle_1 Diffusion Number mean: 2.502742296 max: 10.01096918
Region: particle_2 Diffusion Number mean: 2.502742296 max: 10.01096918
deltaT = 0.625685574
Time = 20.4282


Solving for solid region particle_1
DICPCG:  Solving for h, Initial residual = 0.005624699807, Final residual = 5.41314758e-09, No Iterations 12
Min/max T:99670.3327 100130.6598

Solving for solid region particle_2
DICPCG:  Solving for h, Initial residual = 0.004773853123, Final residual = 5.401712344e-09, No Iterations 12
Min/max T:99767.17521 100105.7573
ExecutionTime = 0.36 s  ClockTime = 0 s

volFieldValue particle_1_volumeIntegral write:
    volIntegrate(particle_1) of T = 1.5999832e-12

surfaceFieldValue particle_1_surfaceIntegral_elec write:
    areaIntegrate(particle_1_to_Elec) of T = 1.397522182e-06

volFieldValue particle_2_volumeIntegral write:
    volIntegrate(particle_2) of T = 3.999885665e-13

surfaceFieldValue particle_2_surfaceIntegral_elec write:
    areaIntegrate(particle_2_to_Elec) of T = 5.993246276e-07

Region: particle_1 Diffusion Number mean: 2.502742296 max: 10.01096918
Region: particle_2 Diffusion Number mean: 2.502742296 max: 10.01096918
deltaT = 0.625685574
Time = 21.0539


Solving for solid region particle_1
DICPCG:  Solving for h, Initial residual = 0.005318664495, Final residual = 5.113463843e-09, No Iterations 12
Min/max T:99667.83195 100132.4193

Solving for solid region particle_2
DICPCG:  Solving for h, Initial residual = 0.004524520677, Final residual = 5.150251651e-09, No Iterations 12
Min/max T:99766.23177 100106.9709
ExecutionTime = 0.36 s  ClockTime = 0 s

volFieldValue particle_1_volumeIntegral write:
    volIntegrate(particle_1) of T = 1.599982869e-12

surfaceFieldValue particle_1_surfaceIntegral_elec write:
    areaIntegrate(particle_1_to_Elec) of T = 1.397506696e-06

volFieldValue particle_2_volumeIntegral write:
    volIntegrate(particle_2) of T = 3.99988408e-13

surfaceFieldValue particle_2_surfaceIntegral_elec write:
    areaIntegrate(particle_2_to_Elec) of T = 5.993223289e-07

Region: particle_1 Diffusion Number mean: 2.502742296 max: 10.01096918
Region: particle_2 Diffusion Number mean: 2.502742296 max: 10.01096918
deltaT = 0.625685574
Time = 21.6796


Solving for solid region particle_1
DICPCG:  Solving for h, Initial residual = 0.005036015658, Final residual = 4.839689242e-09, No Iterations 12
Min/max T:99665.43619 100134.0895

Solving for solid region particle_2
DICPCG:  Solving for h, Initial residual = 0.004292292104, Final residual = 4.915947515e-09, No Iterations 12
Min/max T:99765.3394 100108.1335
ExecutionTime = 0.37 s  ClockTime = 0 s

volFieldValue particle_1_volumeIntegral write:
    volIntegrate(particle_1) of T = 1.599982532e-12

surfaceFieldValue particle_1_surfaceIntegral_elec write:
    areaIntegrate(particle_1_to_Elec) of T = 1.397492035e-06

volFieldValue particle_2_volumeIntegral write:
    volIntegrate(particle_2) of T = 3.999882735e-13

surfaceFieldValue particle_2_surfaceIntegral_elec write:
    areaIntegrate(particle_2_to_Elec) of T = 5.993201743e-07

Region: particle_1 Diffusion Number mean: 2.502742296 max: 10.01096918
Region: particle_2 Diffusion Number mean: 2.502742296 max: 10.01096918
deltaT = 0.625685574
Time = 22.3053


Solving for solid region particle_1
DICPCG:  Solving for h, Initial residual = 0.004774952463, Final residual = 4.589639754e-09, No Iterations 12
Min/max T:99663.13958 100135.6748

Solving for solid region particle_2
DICPCG:  Solving for h, Initial residual = 0.004075697136, Final residual = 4.697233604e-09, No Iterations 12
Min/max T:99764.49513 100109.2479
ExecutionTime = 0.38 s  ClockTime = 0 s

volFieldValue particle_1_volumeIntegral write:
    volIntegrate(particle_1) of T = 1.599982187e-12

surfaceFieldValue particle_1_surfaceIntegral_elec write:
    areaIntegrate(particle_1_to_Elec) of T = 1.397478148e-06

volFieldValue particle_2_volumeIntegral write:
    volIntegrate(particle_2) of T = 3.999881629e-13

surfaceFieldValue particle_2_surfaceIntegral_elec write:
    areaIntegrate(particle_2_to_Elec) of T = 5.993181565e-07

Region: particle_1 Diffusion Number mean: 2.502742296 max: 10.01096918
Region: particle_2 Diffusion Number mean: 2.502742296 max: 10.01096918
deltaT = 0.625685574
Time = 22.931


Solving for solid region particle_1
DICPCG:  Solving for h, Initial residual = 0.004533808633, Final residual = 4.360992821e-09, No Iterations 12
Min/max T:99660.93671 100137.1796

Solving for solid region particle_2
DICPCG:  Solving for h, Initial residual = 0.003873416872, Final residual = 4.492944092e-09, No Iterations 12
Min/max T:99763.69623 100110.3171
ExecutionTime = 0.38 s  ClockTime = 0 s

volFieldValue particle_1_volumeIntegral write:
    volIntegrate(particle_1) of T = 1.599981835e-12

surfaceFieldValue particle_1_surfaceIntegral_elec write:
    areaIntegrate(particle_1_to_Elec) of T = 1.397464989e-06

volFieldValue particle_2_volumeIntegral write:
    volIntegrate(particle_2) of T = 3.999880759e-13

surfaceFieldValue particle_2_surfaceIntegral_elec write:
    areaIntegrate(particle_2_to_Elec) of T = 5.993162684e-07

Region: particle_1 Diffusion Number mean: 2.502742296 max: 10.01096918
Region: particle_2 Diffusion Number mean: 2.502742296 max: 10.01096918
deltaT = 0.625685574
Time = 23.5567


Solving for solid region particle_1
DICPCG:  Solving for h, Initial residual = 0.004311789521, Final residual = 4.151853547e-09, No Iterations 12
Min/max T:99658.82248 100138.62

Solving for solid region particle_2
DICPCG:  Solving for h, Initial residual = 0.003684265441, Final residual = 4.301997877e-09, No Iterations 12
Min/max T:99762.94016 100111.3434
ExecutionTime = 0.39 s  ClockTime = 0 s

volFieldValue particle_1_volumeIntegral write:
    volIntegrate(particle_1) of T = 1.599981473e-12

surfaceFieldValue particle_1_surfaceIntegral_elec write:
    areaIntegrate(particle_1_to_Elec) of T = 1.397452513e-06

volFieldValue particle_2_volumeIntegral write:
    volIntegrate(particle_2) of T = 3.999880123e-13

surfaceFieldValue particle_2_surfaceIntegral_elec write:
    areaIntegrate(particle_2_to_Elec) of T = 5.993145038e-07

Region: particle_1 Diffusion Number mean: 2.502742296 max: 10.01096918
Region: particle_2 Diffusion Number mean: 2.502742296 max: 10.01096918
deltaT = 0.625685574
Time = 24.1824


Solving for solid region particle_1
DICPCG:  Solving for h, Initial residual = 0.004106429278, Final residual = 3.960219116e-09, No Iterations 12
Min/max T:99656.79215 100140.0058

Solving for solid region particle_2
DICPCG:  Solving for h, Initial residual = 0.00350726994, Final residual = 4.123402239e-09, No Iterations 12
Min/max T:99762.22459 100112.3294
ExecutionTime = 0.39 s  ClockTime = 0 s

volFieldValue particle_1_volumeIntegral write:
    volIntegrate(particle_1) of T = 1.599981103e-12

surfaceFieldValue particle_1_surfaceIntegral_elec write:
    areaIntegrate(particle_1_to_Elec) of T = 1.39744068e-06

volFieldValue particle_2_volumeIntegral write:
    volIntegrate(particle_2) of T = 3.999879718e-13

surfaceFieldValue particle_2_surfaceIntegral_elec write:
    areaIntegrate(particle_2_to_Elec) of T = 5.993128565e-07

Region: particle_1 Diffusion Number mean: 2.502742296 max: 10.01096918
Region: particle_2 Diffusion Number mean: 2.502742296 max: 10.01096918
deltaT = 0.625685574
Time = 24.808


Solving for solid region particle_1
DICPCG:  Solving for h, Initial residual = 0.003916522477, Final residual = 3.784683798e-09, No Iterations 12
Min/max T:99654.84126 100141.3238

Solving for solid region particle_2
DICPCG:  Solving for h, Initial residual = 0.003341451339, Final residual = 3.95612676e-09, No Iterations 12
Min/max T:99761.54738 100113.2774
ExecutionTime = 0.4 s  ClockTime = 0 s

volFieldValue particle_1_volumeIntegral write:
    volIntegrate(particle_1) of T = 1.599980723e-12

surfaceFieldValue particle_1_surfaceIntegral_elec write:
    areaIntegrate(particle_1_to_Elec) of T = 1.397429451e-06

volFieldValue particle_2_volumeIntegral write:
    volIntegrate(particle_2) of T = 3.999879541e-13

surfaceFieldValue particle_2_surfaceIntegral_elec write:
    areaIntegrate(particle_2_to_Elec) of T = 5.993113212e-07

Region: particle_1 Diffusion Number mean: 2.502742296 max: 10.01096918
Region: particle_2 Diffusion Number mean: 2.502742296 max: 10.01096918
deltaT = 0.625685574
Time = 25.4337


Solving for solid region particle_1
DICPCG:  Solving for h, Initial residual = 0.00374139446, Final residual = 3.624173126e-09, No Iterations 12
Min/max T:99652.96564 100142.5775

Solving for solid region particle_2
DICPCG:  Solving for h, Initial residual = 0.003186012664, Final residual = 3.799170624e-09, No Iterations 12
Min/max T:99760.90652 100114.1894
ExecutionTime = 0.41 s  ClockTime = 0 s

volFieldValue particle_1_volumeIntegral write:
    volIntegrate(particle_1) of T = 1.599980334e-12

surfaceFieldValue particle_1_surfaceIntegral_elec write:
    areaIntegrate(particle_1_to_Elec) of T = 1.397418791e-06

volFieldValue particle_2_volumeIntegral write:
    volIntegrate(particle_2) of T = 3.999879589e-13

surfaceFieldValue particle_2_surfaceIntegral_elec write:
    areaIntegrate(particle_2_to_Elec) of T = 5.993098924e-07

Region: particle_1 Diffusion Number mean: 2.502742296 max: 10.01096918
Region: particle_2 Diffusion Number mean: 2.502742296 max: 10.01096918
deltaT = 0.625685574
Time = 26.0594


Solving for solid region particle_1
DICPCG:  Solving for h, Initial residual = 0.003579714362, Final residual = 3.477242654e-09, No Iterations 12
Min/max T:99651.16137 100143.7701

Solving for solid region particle_2
DICPCG:  Solving for h, Initial residual = 0.003040209926, Final residual = 3.651986417e-09, No Iterations 12
Min/max T:99760.30015 100115.0674
ExecutionTime = 0.41 s  ClockTime = 0 s

volFieldValue particle_1_volumeIntegral write:
    volIntegrate(particle_1) of T = 1.599979934e-12

surfaceFieldValue particle_1_surfaceIntegral_elec write:
    areaIntegrate(particle_1_to_Elec) of T = 1.397408667e-06

volFieldValue particle_2_volumeIntegral write:
    volIntegrate(particle_2) of T = 3.999879857e-13

surfaceFieldValue particle_2_surfaceIntegral_elec write:
    areaIntegrate(particle_2_to_Elec) of T = 5.993085655e-07

Region: particle_1 Diffusion Number mean: 2.502742296 max: 10.01096918
Region: particle_2 Diffusion Number mean: 2.502742296 max: 10.01096918
deltaT = 0.625685574
Time = 26.6851


Solving for solid region particle_1
DICPCG:  Solving for h, Initial residual = 0.003430163881, Final residual = 3.34251234e-09, No Iterations 12
Min/max T:99649.42478 100144.9049

Solving for solid region particle_2
DICPCG:  Solving for h, Initial residual = 0.002903568219, Final residual = 3.513723359e-09, No Iterations 12
Min/max T:99759.72653 100115.9134
ExecutionTime = 0.42 s  ClockTime = 0 s

volFieldValue particle_1_volumeIntegral write:
    volIntegrate(particle_1) of T = 1.599979524e-12

surfaceFieldValue particle_1_surfaceIntegral_elec write:
    areaIntegrate(particle_1_to_Elec) of T = 1.397399045e-06

volFieldValue particle_2_volumeIntegral write:
    volIntegrate(particle_2) of T = 3.999880342e-13

surfaceFieldValue particle_2_surfaceIntegral_elec write:
    areaIntegrate(particle_2_to_Elec) of T = 5.993073357e-07

Region: particle_1 Diffusion Number mean: 2.502742296 max: 10.01096918
Region: particle_2 Diffusion Number mean: 2.502742296 max: 10.01096918
deltaT = 0.625685574
Time = 27.3108


Solving for solid region particle_1
DICPCG:  Solving for h, Initial residual = 0.003292823358, Final residual = 9.647649264e-09, No Iterations 11
Min/max T:99647.75239 100145.9848

Solving for solid region particle_2
DICPCG:  Solving for h, Initial residual = 0.002775190363, Final residual = 3.383652724e-09, No Iterations 12
Min/max T:99759.18404 100116.7291
ExecutionTime = 0.42 s  ClockTime = 0 s

volFieldValue particle_1_volumeIntegral write:
    volIntegrate(particle_1) of T = 1.599979104e-12

surfaceFieldValue particle_1_surfaceIntegral_elec write:
    areaIntegrate(particle_1_to_Elec) of T = 1.397389897e-06

volFieldValue particle_2_volumeIntegral write:
    volIntegrate(particle_2) of T = 3.99988104e-13

surfaceFieldValue particle_2_surfaceIntegral_elec write:
    areaIntegrate(particle_2_to_Elec) of T = 5.993061987e-07

Region: particle_1 Diffusion Number mean: 2.502742296 max: 10.01096918
Region: particle_2 Diffusion Number mean: 2.502742296 max: 10.01096918
deltaT = 0.625685574
Time = 27.9365


Solving for solid region particle_1
DICPCG:  Solving for h, Initial residual = 0.003166196961, Final residual = 9.282636183e-09, No Iterations 11
Min/max T:99646.14098 100147.0125

Solving for solid region particle_2
DICPCG:  Solving for h, Initial residual = 0.002654229918, Final residual = 3.261086054e-09, No Iterations 12
Min/max T:99758.67117 100117.5161
ExecutionTime = 0.42 s  ClockTime = 0 s

volFieldValue particle_1_volumeIntegral write:
    volIntegrate(particle_1) of T = 1.599978673e-12

surfaceFieldValue particle_1_surfaceIntegral_elec write:
    areaIntegrate(particle_1_to_Elec) of T = 1.397381195e-06

volFieldValue particle_2_volumeIntegral write:
    volIntegrate(particle_2) of T = 3.999881947e-13

surfaceFieldValue particle_2_surfaceIntegral_elec write:
    areaIntegrate(particle_2_to_Elec) of T = 5.993051505e-07

Region: particle_1 Diffusion Number mean: 2.502742296 max: 10.01096918
Region: particle_2 Diffusion Number mean: 2.502742296 max: 10.01096918
deltaT = 0.625685574
Time = 28.5622


Solving for solid region particle_1
DICPCG:  Solving for h, Initial residual = 0.003050447892, Final residual = 8.946993724e-09, No Iterations 11
Min/max T:99644.58748 100147.9909

Solving for solid region particle_2
DICPCG:  Solving for h, Initial residual = 0.002540169289, Final residual = 3.145315274e-09, No Iterations 12
Min/max T:99758.18649 100118.2759
ExecutionTime = 0.44 s  ClockTime = 0 s

volFieldValue particle_1_volumeIntegral write:
    volIntegrate(particle_1) of T = 1.599978232e-12

surfaceFieldValue particle_1_surfaceIntegral_elec write:
    areaIntegrate(particle_1_to_Elec) of T = 1.397372913e-06

volFieldValue particle_2_volumeIntegral write:
    volIntegrate(particle_2) of T = 3.999883059e-13

surfaceFieldValue particle_2_surfaceIntegral_elec write:
    areaIntegrate(particle_2_to_Elec) of T = 5.993041871e-07

Region: particle_1 Diffusion Number mean: 2.502742296 max: 10.01096918
Region: particle_2 Diffusion Number mean: 2.502742296 max: 10.01096918
deltaT = 0.625685574
Time = 29.1878


Solving for solid region particle_1
DICPCG:  Solving for h, Initial residual = 0.002945496583, Final residual = 8.63812852e-09, No Iterations 11
[...]

volFieldValue particle_1_volumeIntegral write:
    volIntegrate(particle_1) of T = 1.599799001e-12

surfaceFieldValue particle_1_surfaceIntegral_elec write:
    areaIntegrate(particle_1_to_Elec) of T = 1.397005186e-06

volFieldValue particle_2_volumeIntegral write:
    volIntegrate(particle_2) of T = 4.001442112e-13

surfaceFieldValue particle_2_surfaceIntegral_elec write:
    areaIntegrate(particle_2_to_Elec) of T = 5.995201563e-07

Region: particle_1 Diffusion Number mean: 2.5 max: 10
Region: particle_2 Diffusion Number mean: 2.5 max: 10
deltaT = 0.625
Time = 788.125


Solving for solid region particle_1
DICPCG:  Solving for h, Initial residual = 9.351818847e-08, Final residual = 5.77050858e-09, No Iterations 2
Min/max T:99567.78138 100175.7936

Solving for solid region particle_2
DICPCG:  Solving for h, Initial residual = 3.230930924e-07, Final residual = 7.209556802e-09, No Iterations 3
Min/max T:99789.23805 100167.0024
ExecutionTime = 6.08 s  ClockTime = 6 s

volFieldValue particle_1_volumeIntegral write:
    volIntegrate(particle_1) of T = 1.599799001e-12

surfaceFieldValue particle_1_surfaceIntegral_elec write:
    areaIntegrate(particle_1_to_Elec) of T = 1.397005185e-06

volFieldValue particle_2_volumeIntegral write:
    volIntegrate(particle_2) of T = 4.001442114e-13

surfaceFieldValue particle_2_surfaceIntegral_elec write:
    areaIntegrate(particle_2_to_Elec) of T = 5.995201567e-07

Region: particle_1 Diffusion Number mean: 2.5 max: 10
Region: particle_2 Diffusion Number mean: 2.5 max: 10
deltaT = 0.625
Time = 788.75


Solving for solid region particle_1
DICPCG:  Solving for h, Initial residual = 9.283152638e-08, Final residual = 5.728048012e-09, No Iterations 2
Min/max T:99567.78134 100175.7936

Solving for solid region particle_2
DICPCG:  Solving for h, Initial residual = 3.207294023e-07, Final residual = 7.156670317e-09, No Iterations 3
Min/max T:99789.23812 100167.0025
ExecutionTime = 6.09 s  ClockTime = 6 s

volFieldValue particle_1_volumeIntegral write:
    volIntegrate(particle_1) of T = 1.599799001e-12

surfaceFieldValue particle_1_surfaceIntegral_elec write:
    areaIntegrate(particle_1_to_Elec) of T = 1.397005185e-06

volFieldValue particle_2_volumeIntegral write:
    volIntegrate(particle_2) of T = 4.001442116e-13

surfaceFieldValue particle_2_surfaceIntegral_elec write:
    areaIntegrate(particle_2_to_Elec) of T = 5.99520157e-07

Region: particle_1 Diffusion Number mean: 2.5 max: 10
Region: particle_2 Diffusion Number mean: 2.5 max: 10
deltaT = 0.625
Time = 789.375


Solving for solid region particle_1
DICPCG:  Solving for h, Initial residual = 9.214999319e-08, Final residual = 5.68590989e-09, No Iterations 2
Min/max T:99567.7813 100175.7936

Solving for solid region particle_2
DICPCG:  Solving for h, Initial residual = 3.18383035e-07, Final residual = 7.104182308e-09, No Iterations 3
Min/max T:99789.23819 100167.0025
ExecutionTime = 6.09 s  ClockTime = 6 s

volFieldValue particle_1_volumeIntegral write:
    volIntegrate(particle_1) of T = 1.599799001e-12

surfaceFieldValue particle_1_surfaceIntegral_elec write:
    areaIntegrate(particle_1_to_Elec) of T = 1.397005185e-06

volFieldValue particle_2_volumeIntegral write:
    volIntegrate(particle_2) of T = 4.001442118e-13

surfaceFieldValue particle_2_surfaceIntegral_elec write:
    areaIntegrate(particle_2_to_Elec) of T = 5.995201574e-07

Region: particle_1 Diffusion Number mean: 2.5 max: 10
Region: particle_2 Diffusion Number mean: 2.5 max: 10
deltaT = 0.625
Time = 790


Solving for solid region particle_1
DICPCG:  Solving for h, Initial residual = 9.147354801e-08, Final residual = 5.644092757e-09, No Iterations 2
Min/max T:99567.78127 100175.7936

Solving for solid region particle_2
DICPCG:  Solving for h, Initial residual = 3.16053873e-07, Final residual = 7.052082368e-09, No Iterations 3
Min/max T:99789.23825 100167.0025
ExecutionTime = 6.1 s  ClockTime = 6 s

volFieldValue particle_1_volumeIntegral write:
    volIntegrate(particle_1) of T = 1.599799e-12

surfaceFieldValue particle_1_surfaceIntegral_elec write:
    areaIntegrate(particle_1_to_Elec) of T = 1.397005185e-06

volFieldValue particle_2_volumeIntegral write:
    volIntegrate(particle_2) of T = 4.001442121e-13

surfaceFieldValue particle_2_surfaceIntegral_elec write:
    areaIntegrate(particle_2_to_Elec) of T = 5.995201577e-07

Region: particle_1 Diffusion Number mean: 2.5 max: 10
Region: particle_2 Diffusion Number mean: 2.5 max: 10
deltaT = 0.625
Time = 790.625


Solving for solid region particle_1
DICPCG:  Solving for h, Initial residual = 9.08021371e-08, Final residual = 5.602591318e-09, No Iterations 2
Min/max T:99567.78123 100175.7936

Solving for solid region particle_2
DICPCG:  Solving for h, Initial residual = 3.137417994e-07, Final residual = 7.000374038e-09, No Iterations 3
Min/max T:99789.23832 100167.0026
ExecutionTime = 6.1 s  ClockTime = 6 s

volFieldValue particle_1_volumeIntegral write:
    volIntegrate(particle_1) of T = 1.599799e-12

surfaceFieldValue particle_1_surfaceIntegral_elec write:
    areaIntegrate(particle_1_to_Elec) of T = 1.397005184e-06

volFieldValue particle_2_volumeIntegral write:
    volIntegrate(particle_2) of T = 4.001442123e-13

surfaceFieldValue particle_2_surfaceIntegral_elec write:
    areaIntegrate(particle_2_to_Elec) of T = 5.995201581e-07

Region: particle_1 Diffusion Number mean: 2.5 max: 10
Region: particle_2 Diffusion Number mean: 2.5 max: 10
deltaT = 0.625
Time = 791.25


Solving for solid region particle_1
DICPCG:  Solving for h, Initial residual = 9.013571423e-08, Final residual = 5.561406523e-09, No Iterations 2
Min/max T:99567.78119 100175.7936

Solving for solid region particle_2
DICPCG:  Solving for h, Initial residual = 3.114466566e-07, Final residual = 6.949054376e-09, No Iterations 3
Min/max T:99789.23839 100167.0026
ExecutionTime = 6.1 s  ClockTime = 6 s

volFieldValue particle_1_volumeIntegral write:
    volIntegrate(particle_1) of T = 1.599799e-12

surfaceFieldValue particle_1_surfaceIntegral_elec write:
    areaIntegrate(particle_1_to_Elec) of T = 1.397005184e-06

volFieldValue particle_2_volumeIntegral write:
    volIntegrate(particle_2) of T = 4.001442125e-13

surfaceFieldValue particle_2_surfaceIntegral_elec write:
    areaIntegrate(particle_2_to_Elec) of T = 5.995201584e-07

Region: particle_1 Diffusion Number mean: 2.5 max: 10
Region: particle_2 Diffusion Number mean: 2.5 max: 10
deltaT = 0.625
Time = 791.875


Solving for solid region particle_1
DICPCG:  Solving for h, Initial residual = 8.947426815e-08, Final residual = 5.520528327e-09, No Iterations 2
Min/max T:99567.78115 100175.7936

Solving for solid region particle_2
DICPCG:  Solving for h, Initial residual = 3.091683358e-07, Final residual = 6.898109661e-09, No Iterations 3
Min/max T:99789.23845 100167.0026
ExecutionTime = 6.11 s  ClockTime = 6 s

volFieldValue particle_1_volumeIntegral write:
    volIntegrate(particle_1) of T = 1.599799e-12

surfaceFieldValue particle_1_surfaceIntegral_elec write:
    areaIntegrate(particle_1_to_Elec) of T = 1.397005184e-06

volFieldValue particle_2_volumeIntegral write:
    volIntegrate(particle_2) of T = 4.001442127e-13

surfaceFieldValue particle_2_surfaceIntegral_elec write:
    areaIntegrate(particle_2_to_Elec) of T = 5.995201588e-07

Region: particle_1 Diffusion Number mean: 2.5 max: 10
Region: particle_2 Diffusion Number mean: 2.5 max: 10
deltaT = 0.625
Time = 792.5


Solving for solid region particle_1
DICPCG:  Solving for h, Initial residual = 8.881771486e-08, Final residual = 5.479959877e-09, No Iterations 2
Min/max T:99567.78112 100175.7936

Solving for solid region particle_2
DICPCG:  Solving for h, Initial residual = 3.069067321e-07, Final residual = 6.847547746e-09, No Iterations 3
Min/max T:99789.23852 100167.0027
ExecutionTime = 6.11 s  ClockTime = 6 s

volFieldValue particle_1_volumeIntegral write:
    volIntegrate(particle_1) of T = 1.599798999e-12

surfaceFieldValue particle_1_surfaceIntegral_elec write:
    areaIntegrate(particle_1_to_Elec) of T = 1.397005184e-06

volFieldValue particle_2_volumeIntegral write:
    volIntegrate(particle_2) of T = 4.001442129e-13

surfaceFieldValue particle_2_surfaceIntegral_elec write:
    areaIntegrate(particle_2_to_Elec) of T = 5.995201591e-07

Region: particle_1 Diffusion Number mean: 2.5 max: 10
Region: particle_2 Diffusion Number mean: 2.5 max: 10
deltaT = 0.625
Time = 793.125


Solving for solid region particle_1
DICPCG:  Solving for h, Initial residual = 8.816605499e-08, Final residual = 5.439694781e-09, No Iterations 2
Min/max T:99567.78108 100175.7936

Solving for solid region particle_2
DICPCG:  Solving for h, Initial residual = 3.046616825e-07, Final residual = 6.797361635e-09, No Iterations 3
Min/max T:99789.23858 100167.0027
ExecutionTime = 6.11 s  ClockTime = 6 s

volFieldValue particle_1_volumeIntegral write:
    volIntegrate(particle_1) of T = 1.599798999e-12

surfaceFieldValue particle_1_surfaceIntegral_elec write:
    areaIntegrate(particle_1_to_Elec) of T = 1.397005183e-06

volFieldValue particle_2_volumeIntegral write:
    volIntegrate(particle_2) of T = 4.001442131e-13

surfaceFieldValue particle_2_surfaceIntegral_elec write:
    areaIntegrate(particle_2_to_Elec) of T = 5.995201595e-07

Region: particle_1 Diffusion Number mean: 2.5 max: 10
Region: particle_2 Diffusion Number mean: 2.5 max: 10
deltaT = 0.625
Time = 793.75


Solving for solid region particle_1
DICPCG:  Solving for h, Initial residual = 8.751922857e-08, Final residual = 5.399737262e-09, No Iterations 2
Min/max T:99567.78104 100175.7936

Solving for solid region particle_2
DICPCG:  Solving for h, Initial residual = 3.024330429e-07, Final residual = 6.747544863e-09, No Iterations 3
Min/max T:99789.23865 100167.0027
ExecutionTime = 6.12 s  ClockTime = 6 s

volFieldValue particle_1_volumeIntegral write:
    volIntegrate(particle_1) of T = 1.599798999e-12

surfaceFieldValue particle_1_surfaceIntegral_elec write:
    areaIntegrate(particle_1_to_Elec) of T = 1.397005183e-06

volFieldValue particle_2_volumeIntegral write:
    volIntegrate(particle_2) of T = 4.001442133e-13

surfaceFieldValue particle_2_surfaceIntegral_elec write:
    areaIntegrate(particle_2_to_Elec) of T = 5.995201598e-07

Region: particle_1 Diffusion Number mean: 2.5 max: 10
Region: particle_2 Diffusion Number mean: 2.5 max: 10
deltaT = 0.625
Time = 794.375


Solving for solid region particle_1
DICPCG:  Solving for h, Initial residual = 8.687720567e-08, Final residual = 5.360075912e-09, No Iterations 2
Min/max T:99567.78101 100175.7936

Solving for solid region particle_2
DICPCG:  Solving for h, Initial residual = 3.002207484e-07, Final residual = 6.698102651e-09, No Iterations 3
Min/max T:99789.23871 100167.0028
ExecutionTime = 6.12 s  ClockTime = 6 s

volFieldValue particle_1_volumeIntegral write:
    volIntegrate(particle_1) of T = 1.599798999e-12

surfaceFieldValue particle_1_surfaceIntegral_elec write:
    areaIntegrate(particle_1_to_Elec) of T = 1.397005183e-06

volFieldValue particle_2_volumeIntegral write:
    volIntegrate(particle_2) of T = 4.001442136e-13

surfaceFieldValue particle_2_surfaceIntegral_elec write:
    areaIntegrate(particle_2_to_Elec) of T = 5.995201601e-07

Region: particle_1 Diffusion Number mean: 2.5 max: 10
Region: particle_2 Diffusion Number mean: 2.5 max: 10
deltaT = 0.625
Time = 795


Solving for solid region particle_1
DICPCG:  Solving for h, Initial residual = 8.62399334e-08, Final residual = 5.320711003e-09, No Iterations 2
Min/max T:99567.78097 100175.7936

Solving for solid region particle_2
DICPCG:  Solving for h, Initial residual = 2.980246725e-07, Final residual = 6.649024339e-09, No Iterations 3
Min/max T:99789.23877 100167.0028
ExecutionTime = 6.13 s  ClockTime = 6 s

volFieldValue particle_1_volumeIntegral write:
    volIntegrate(particle_1) of T = 1.599798999e-12

surfaceFieldValue particle_1_surfaceIntegral_elec write:
    areaIntegrate(particle_1_to_Elec) of T = 1.397005183e-06

volFieldValue particle_2_volumeIntegral write:
    volIntegrate(particle_2) of T = 4.001442138e-13

surfaceFieldValue particle_2_surfaceIntegral_elec write:
    areaIntegrate(particle_2_to_Elec) of T = 5.995201605e-07

Region: particle_1 Diffusion Number mean: 2.5 max: 10
Region: particle_2 Diffusion Number mean: 2.5 max: 10
deltaT = 0.625
Time = 795.625


Solving for solid region particle_1
DICPCG:  Solving for h, Initial residual = 8.560739909e-08, Final residual = 5.28164381e-09, No Iterations 2
Min/max T:99567.78094 100175.7936

Solving for solid region particle_2
DICPCG:  Solving for h, Initial residual = 2.958446715e-07, Final residual = 6.600309299e-09, No Iterations 3
Min/max T:99789.23884 100167.0028
ExecutionTime = 6.13 s  ClockTime = 6 s

volFieldValue particle_1_volumeIntegral write:
    volIntegrate(particle_1) of T = 1.599798998e-12

surfaceFieldValue particle_1_surfaceIntegral_elec write:
    areaIntegrate(particle_1_to_Elec) of T = 1.397005182e-06

volFieldValue particle_2_volumeIntegral write:
    volIntegrate(particle_2) of T = 4.00144214e-13

surfaceFieldValue particle_2_surfaceIntegral_elec write:
    areaIntegrate(particle_2_to_Elec) of T = 5.995201608e-07

Region: particle_1 Diffusion Number mean: 2.5 max: 10
Region: particle_2 Diffusion Number mean: 2.5 max: 10
deltaT = 0.625
Time = 796.25


Solving for solid region particle_1
DICPCG:  Solving for h, Initial residual = 8.497954004e-08, Final residual = 5.242865241e-09, No Iterations 2
Min/max T:99567.7809 100175.7936

Solving for solid region particle_2
DICPCG:  Solving for h, Initial residual = 2.936805961e-07, Final residual = 6.551951695e-09, No Iterations 3
Min/max T:99789.2389 100167.0028
ExecutionTime = 6.13 s  ClockTime = 6 s

volFieldValue particle_1_volumeIntegral write:
    volIntegrate(particle_1) of T = 1.599798998e-12

surfaceFieldValue particle_1_surfaceIntegral_elec write:
    areaIntegrate(particle_1_to_Elec) of T = 1.397005182e-06

volFieldValue particle_2_volumeIntegral write:
    volIntegrate(particle_2) of T = 4.001442142e-13

surfaceFieldValue particle_2_surfaceIntegral_elec write:
    areaIntegrate(particle_2_to_Elec) of T = 5.995201611e-07

Region: particle_1 Diffusion Number mean: 2.5 max: 10
Region: particle_2 Diffusion Number mean: 2.5 max: 10
deltaT = 0.625
Time = 796.875


Solving for solid region particle_1
DICPCG:  Solving for h, Initial residual = 8.43563474e-08, Final residual = 5.204380103e-09, No Iterations 2
Min/max T:99567.78087 100175.7937

Solving for solid region particle_2
DICPCG:  Solving for h, Initial residual = 2.915324013e-07, Final residual = 6.503958977e-09, No Iterations 3
Min/max T:99789.23896 100167.0029
ExecutionTime = 6.14 s  ClockTime = 6 s

volFieldValue particle_1_volumeIntegral write:
    volIntegrate(particle_1) of T = 1.599798998e-12

surfaceFieldValue particle_1_surfaceIntegral_elec write:
    areaIntegrate(particle_1_to_Elec) of T = 1.397005182e-06

volFieldValue particle_2_volumeIntegral write:
    volIntegrate(particle_2) of T = 4.001442144e-13

surfaceFieldValue particle_2_surfaceIntegral_elec write:
    areaIntegrate(particle_2_to_Elec) of T = 5.995201614e-07

Region: particle_1 Diffusion Number mean: 2.5 max: 10
Region: particle_2 Diffusion Number mean: 2.5 max: 10
deltaT = 0.625
Time = 797.5


Solving for solid region particle_1
DICPCG:  Solving for h, Initial residual = 8.37377488e-08, Final residual = 5.166180064e-09, No Iterations 2
Min/max T:99567.78083 100175.7937

Solving for solid region particle_2
DICPCG:  Solving for h, Initial residual = 2.893998994e-07, Final residual = 6.456315923e-09, No Iterations 3
Min/max T:99789.23902 100167.0029
ExecutionTime = 6.14 s  ClockTime = 6 s

volFieldValue particle_1_volumeIntegral write:
    volIntegrate(particle_1) of T = 1.599798998e-12

surfaceFieldValue particle_1_surfaceIntegral_elec write:
    areaIntegrate(particle_1_to_Elec) of T = 1.397005182e-06

volFieldValue particle_2_volumeIntegral write:
    volIntegrate(particle_2) of T = 4.001442146e-13

surfaceFieldValue particle_2_surfaceIntegral_elec write:
    areaIntegrate(particle_2_to_Elec) of T = 5.995201618e-07

Region: particle_1 Diffusion Number mean: 2.5 max: 10
Region: particle_2 Diffusion Number mean: 2.5 max: 10
deltaT = 0.625
Time = 798.125


Solving for solid region particle_1
DICPCG:  Solving for h, Initial residual = 8.312373324e-08, Final residual = 5.128265295e-09, No Iterations 2
Min/max T:99567.7808 100175.7937

Solving for solid region particle_2
DICPCG:  Solving for h, Initial residual = 2.872830368e-07, Final residual = 6.409027484e-09, No Iterations 3
Min/max T:99789.23908 100167.0029
ExecutionTime = 6.14 s  ClockTime = 6 s

volFieldValue particle_1_volumeIntegral write:
    volIntegrate(particle_1) of T = 1.599798998e-12

surfaceFieldValue particle_1_surfaceIntegral_elec write:
    areaIntegrate(particle_1_to_Elec) of T = 1.397005181e-06

volFieldValue particle_2_volumeIntegral write:
    volIntegrate(particle_2) of T = 4.001442148e-13

surfaceFieldValue particle_2_surfaceIntegral_elec write:
    areaIntegrate(particle_2_to_Elec) of T = 5.995201621e-07

Region: particle_1 Diffusion Number mean: 2.5 max: 10
Region: particle_2 Diffusion Number mean: 2.5 max: 10
deltaT = 0.625
Time = 798.75


Solving for solid region particle_1
DICPCG:  Solving for h, Initial residual = 8.251426107e-08, Final residual = 5.090634719e-09, No Iterations 2
Min/max T:99567.78076 100175.7937

Solving for solid region particle_2
DICPCG:  Solving for h, Initial residual = 2.851816218e-07, Final residual = 6.362083694e-09, No Iterations 3
Min/max T:99789.23914 100167.003
ExecutionTime = 6.15 s  ClockTime = 6 s

volFieldValue particle_1_volumeIntegral write:
    volIntegrate(particle_1) of T = 1.599798997e-12

surfaceFieldValue particle_1_surfaceIntegral_elec write:
    areaIntegrate(particle_1_to_Elec) of T = 1.397005181e-06

volFieldValue particle_2_volumeIntegral write:
    volIntegrate(particle_2) of T = 4.00144215e-13

surfaceFieldValue particle_2_surfaceIntegral_elec write:
    areaIntegrate(particle_2_to_Elec) of T = 5.995201624e-07

Region: particle_1 Diffusion Number mean: 2.5 max: 10
Region: particle_2 Diffusion Number mean: 2.5 max: 10
deltaT = 0.625
Time = 799.375


Solving for solid region particle_1
DICPCG:  Solving for h, Initial residual = 8.190928253e-08, Final residual = 5.053280602e-09, No Iterations 2
Min/max T:99567.78073 100175.7937

Solving for solid region particle_2
DICPCG:  Solving for h, Initial residual = 2.830956017e-07, Final residual = 6.315487828e-09, No Iterations 3
Min/max T:99789.2392 100167.003
ExecutionTime = 6.15 s  ClockTime = 6 s

volFieldValue particle_1_volumeIntegral write:
    volIntegrate(particle_1) of T = 1.599798997e-12

surfaceFieldValue particle_1_surfaceIntegral_elec write:
    areaIntegrate(particle_1_to_Elec) of T = 1.397005181e-06

volFieldValue particle_2_volumeIntegral write:
    volIntegrate(particle_2) of T = 4.001442152e-13

surfaceFieldValue particle_2_surfaceIntegral_elec write:
    areaIntegrate(particle_2_to_Elec) of T = 5.995201627e-07

Region: particle_1 Diffusion Number mean: 2.5 max: 10
Region: particle_2 Diffusion Number mean: 2.5 max: 10
deltaT = 0.625
Time = 800


Solving for solid region particle_1
DICPCG:  Solving for h, Initial residual = 8.130879435e-08, Final residual = 5.016205378e-09, No Iterations 2
Min/max T:99567.7807 100175.7937

Solving for solid region particle_2
DICPCG:  Solving for h, Initial residual = 2.810248506e-07, Final residual = 6.269240445e-09, No Iterations 3
Min/max T:99789.23926 100167.003
ExecutionTime = 6.15 s  ClockTime = 6 s

volFieldValue particle_1_volumeIntegral write:
    volIntegrate(particle_1) of T = 1.599798997e-12

surfaceFieldValue particle_1_surfaceIntegral_elec write:
    areaIntegrate(particle_1_to_Elec) of T = 1.397005181e-06

volFieldValue particle_2_volumeIntegral write:
    volIntegrate(particle_2) of T = 4.001442154e-13

surfaceFieldValue particle_2_surfaceIntegral_elec write:
    areaIntegrate(particle_2_to_Elec) of T = 5.99520163e-07

End

